*N2O emissions output file

*DSSAT Cropping System Model Ver. 4.7.5.035 -develop  JUN 02, 2021 09:26:05

*RUN   1        : 20 IRRIG, light rate,freq CRGRO047 UFGA7801    1
 MODEL          : CRGRO047 - Soybean
 EXPERIMENT     : UFGA7801 SB BRAGG, IRRIGATED & NON-IRRIGATED
 DATA PATH      :
 TREATMENT  1   : 20 IRRIG, light rate,freq CRGRO047
  
!              |---------------------------------- Cumulative ---------------------------------|---------------------------------- Daily --------------------------------------|
!               N2Oemit  N2emit  NOemit     CO2   Denit  Nitrif   N2O-denit+nit      N2      NO N2Oemit  N2emit  NOemit     CO2   Denit  Nitrif   N2O-denit+nit      N2      NO   Denitrification (g[N]/ha) by soil depth (cm):                           Nitrification (g[N]/ha) by soil depth (cm):                             N2O flux (g[N]/ha) by soil depth (cm):                                  N2 flux (g[N]/ha) by soil depth (cm):                                   NO flux (g[N]/ha) by soil depth (cm):
!                 kg/ha   kg/ha   kg/ha   kg/ha   kg/ha   kg/ha   kg/ha   kg/ha   kg/ha   kg/ha    g/ha    g/ha    g/ha    g/ha    g/ha    g/ha    g/ha    g/ha    g/ha    g/ha     0-5    5-15   15-30   30-45   45-60   60-90  90-120 120-150 150-180     0-5    5-15   15-30   30-45   45-60   60-90  90-120 120-150 150-180     0-5    5-15   15-30   30-45   45-60   60-90  90-120 120-150 150-180     0-5    5-15   15-30   30-45   45-60   60-90  90-120 120-150 150-180     0-5    5-15   15-30   30-45   45-60   60-90  90-120 120-150 150-180
@YEAR DOY   DAS   N2OEC    N2EC    NOEC   CO2TC    NDNC    NITC   N2ODC   N2ONC   N2FLC   NOFLC   N2OED    N2ED    NOED   CO2TD    NDND   NITRD   N2ODD   N2OND   N2FLD   NOFLD   NDN1D   NDN2D   NDN3D   NDN4D   NDN5D   NDN6D   NDN7D   NDN8D   NDN9D   NIT1D   NIT2D   NIT3D   NIT4D   NIT5D   NIT6D   NIT7D   NIT8D   NIT9D   N2O1D   N2O2D   N2O3D   N2O4D   N2O5D   N2O6D   N2O7D   N2O8D   N2O9D   N2F1D   N2F2D   N2F3D   N2F4D   N2F5D   N2F6D   N2F7D   N2F8D   N2F9D   NOF1D   NOF2D   NOF3D   NOF4D   NOF5D   NOF6D   NOF7D   NOF8D   NOF9D   
 2020 155     1    0.00    0.00    0.00       4    0.00     7.4   0.000   0.007   0.000   0.041     0.1     0.0     0.7    4335     0.0    7394    0.00    7.39    0.00   40.65     0.0     0.0     0.0     0.0     0.0     0.0     0.0     0.0     0.0    181.    390.    714.    714.    677.   1208.   1129.   1161.   1219.     0.2     0.4     0.7     0.7     0.7     1.2     1.1     1.2     1.2     0.0     0.0     0.0     0.0     0.0     0.0     0.0     0.0     0.0     1.3     2.8     5.0     5.0     4.7     8.7     7.9     4.9     0.4
 2020 156     2    0.00    0.00    0.00       8    0.00    11.5   0.000   0.011   0.000   0.068     0.2     0.0     1.5    4079     0.0    4064    0.00    4.06    0.00   27.15     0.0     0.0     0.0     0.0     0.0     0.0     0.0     0.0     0.0    112.    228.    338.    333.    338.    641.    644.    678.    753.     0.1     0.2     0.3     0.3     0.3     0.6     0.6     0.7     0.8     0.0     0.0     0.0     0.0     0.0     0.0     0.0     0.0     0.0     1.0     2.1     2.9     2.9     2.9     5.8     5.6     3.6     0.3
 2020 157     3    0.00    0.00    0.00      12    0.00    13.8   0.000   0.014   0.000   0.080     0.3     0.0     2.0    3859     0.0    2324    0.00    2.32    0.00   12.11     0.0     0.0     0.0     0.0     0.0     0.0     0.0     0.0     0.0     75.    145.    172.    165.    177.    348.    372.    400.    469.     0.1     0.1     0.2     0.2     0.2     0.3     0.4     0.4     0.5     0.0     0.0     0.0     0.0     0.0     0.0     0.0     0.0     0.0     0.6     1.0     1.2     1.1     1.2     2.5     2.6     1.7     0.1
 2020 158     4    0.00    0.00    0.01      16    0.00    15.2   0.000   0.015   0.000   0.087     0.3     0.0     2.5    3684     0.0    1435    0.00    1.43    0.00    7.40     0.0     0.0     0.0     0.0     0.0     0.0     0.0     0.0     0.0     57.    106.    103.     94.    104.    201.    222.    246.    302.     0.1     0.1     0.1     0.1     0.1     0.2     0.2     0.2     0.3     0.0     0.0     0.0     0.0     0.0     0.0     0.0     0.0     0.0     0.4     0.8     0.7     0.7     0.7     1.4     1.6     1.0     0.1
 2020 159     5    0.00    0.00    0.01      19    0.00    16.1   0.000   0.016   0.000   0.092     0.4     0.0     2.9    3472     0.0     909    0.00    0.91    0.00    4.71     0.0     0.0     0.0     0.0     0.0     0.0     0.0     0.0     0.0     43.     82.     68.     58.     65.    119.    133.    149.    192.     0.0     0.1     0.1     0.1     0.1     0.1     0.1     0.1     0.2     0.0     0.0     0.0     0.0     0.0     0.0     0.0     0.0     0.0     0.3     0.6     0.5     0.4     0.4     0.9     0.9     0.6     0.1
 2020 160     6    0.00    0.00    0.01      23    0.00    16.7   0.000   0.017   0.000   0.095     0.4     0.0     3.3    3344     0.0     612    0.00    0.61    0.00    3.25     0.0     0.0     0.0     0.0     0.0     0.0     0.0     0.0     0.0     36.     69.     52.     42.     46.     75.     80.     91.    123.     0.0     0.1     0.1     0.0     0.0     0.1     0.1     0.1     0.1     0.0     0.0     0.0     0.0     0.0     0.0     0.0     0.0     0.0     0.3     0.5     0.4     0.3     0.3     0.5     0.6     0.4     0.0
 2020 161     7    0.00    0.00    0.02      26    0.00    17.2   0.000   0.017   0.000   0.105     0.5     0.0     3.9    3265     0.0     467    0.00    0.47    0.00    9.68     0.0     0.0     0.0     0.0     0.0     0.0     0.0     0.0     0.0     33.     66.     47.     36.     38.     53.     52.     59.     82.     0.0     0.1     0.0     0.0     0.0     0.1     0.1     0.1     0.1     0.0     0.0     0.0     0.0     0.0     0.0     0.0     0.0     0.0     0.9     1.8     1.2     0.9     1.0     1.4     1.4     0.9     0.1
 2020 162     8    0.00    0.00    0.02      29    0.00    17.5   0.000   0.018   0.000   0.110     0.3     0.0     2.0    3012     0.0     326    0.00    0.33    0.00    4.84     0.0     0.0     0.0     0.0     0.0     0.0     0.0     0.0     0.0     30.     53.     38.     28.     29.     36.     30.     34.     49.     0.0     0.1     0.0     0.0     0.0     0.0     0.0     0.0     0.0     0.0     0.0     0.0     0.0     0.0     0.0     0.0     0.0     0.0     0.2     0.8     0.7     0.6     0.6     0.8     0.6     0.4     0.0
 2020 163     9    0.00    0.00    0.02      32    0.00    17.8   0.000   0.018   0.000   0.114     0.5     0.0     3.9    2783     0.0     261    0.00    0.26    0.00    3.74     0.0     0.0     0.0     0.0     0.0     0.0     0.0     0.0     0.0     32.     46.     33.     24.     25.     27.     19.     22.     32.     0.0     0.0     0.0     0.0     0.0     0.0     0.0     0.0     0.0     0.0     0.0     0.0     0.0     0.0     0.0     0.0     0.0     0.0     0.5     0.8     0.6     0.4     0.4     0.5     0.3     0.2     0.0
 2020 164    10    0.00    0.00    0.03      35    0.00    18.0   0.000   0.018   0.000   0.116     0.7     0.0     5.5    2683     0.0     235    0.00    0.23    0.00    2.93     0.0     0.0     0.0     0.0     0.0     0.0     0.0     0.0     0.0     30.     45.     33.     24.     24.     24.     15.     17.     24.     0.0     0.0     0.0     0.0     0.0     0.0     0.0     0.0     0.0     0.0     0.0     0.0     0.0     0.0     0.0     0.0     0.0     0.0     0.4     0.6     0.5     0.3     0.3     0.4     0.2     0.1     0.0
 2020 165    11    0.00    0.00    0.03      37    0.00    18.2   0.000   0.018   0.000   0.119     0.7     0.0     5.6    2605     0.0     221    0.00    0.22    0.00    2.30     0.0     0.0     0.0     0.0     0.0     0.0     0.0     0.0     0.0     27.     46.     33.     24.     24.     23.     12.     13.     19.     0.0     0.0     0.0     0.0     0.0     0.0     0.0     0.0     0.0     0.0     0.0     0.0     0.0     0.0     0.0     0.0     0.0     0.0     0.3     0.5     0.4     0.3     0.3     0.3     0.1     0.1     0.0
 2020 166    12    0.00    0.00    0.04      40    0.00    18.5   0.000   0.018   0.000   0.121     0.7     0.0     5.7    2497     0.0     211    0.00    0.21    0.00    1.81     0.0     0.0     0.0     0.0     0.0     0.0     0.0     0.0     0.0     24.     45.     34.     25.     24.     22.     10.     11.     15.     0.0     0.0     0.0     0.0     0.0     0.0     0.0     0.0     0.0     0.0     0.0     0.0     0.0     0.0     0.0     0.0     0.0     0.0     0.2     0.4     0.3     0.2     0.2     0.2     0.1     0.1     0.0
 2020 167    13    0.01    0.00    0.05      57    0.00    18.7   0.000   0.019   0.000   0.122     0.7     0.0     5.7   16976     0.0     214    0.00    0.21    0.00    1.49     0.0     0.0     0.0     0.0     0.0     0.0     0.0     0.0     0.0     27.     29.     40.     29.     28.     25.     11.     11.     14.     0.0     0.0     0.0     0.0     0.0     0.0     0.0     0.0     0.0     0.0     0.0     0.0     0.0     0.0     0.0     0.0     0.0     0.0     0.2     0.2     0.3     0.2     0.2     0.2     0.1     0.0     0.0
 2020 168    14    0.01    0.00    0.05      77    0.00    18.8   0.000   0.019   0.000   0.123     0.5     0.0     4.1   20298     0.0     167    0.00    0.17    0.00    1.05     0.0     0.0     0.0     0.0     0.0     0.0     0.0     0.0     0.0      0.      0.     44.     32.     30.     27.     10.     11.     13.     0.0     0.0     0.0     0.0     0.0     0.0     0.0     0.0     0.0     0.0     0.0     0.0     0.0     0.0     0.0     0.0     0.0     0.0     0.0     0.0     0.3     0.2     0.2     0.2     0.1     0.0     0.0
 2020 169    15    0.01    0.00    0.06      97    0.00    19.0   0.000   0.019   0.000   0.124     0.7     0.0     5.8   19641     0.0     162    0.00    0.16    0.00    1.03     0.0     0.0     0.0     0.0     0.0     0.0     0.0     0.0     0.0      0.      0.     43.     31.     30.     26.     10.     10.     12.     0.0     0.0     0.0     0.0     0.0     0.0     0.0     0.0     0.0     0.0     0.0     0.0     0.0     0.0     0.0     0.0     0.0     0.0     0.0     0.0     0.3     0.2     0.2     0.2     0.1     0.0     0.0
 2020 170    16    0.01    0.00    0.06     113    0.00    19.2   0.000   0.019   0.000   0.125     0.7     0.0     5.7   16907     0.0     158    0.00    0.16    0.00    1.01     0.0     0.0     0.0     0.0     0.0     0.0     0.0     0.0     0.0      0.      0.     43.     31.     30.     26.      9.      9.     11.     0.0     0.0     0.0     0.0     0.0     0.0     0.0     0.0     0.0     0.0     0.0     0.0     0.0     0.0     0.0     0.0     0.0     0.0     0.0     0.0     0.3     0.2     0.2     0.2     0.1     0.0     0.0
 2020 171    17    0.01    0.00    0.06     130    0.00    19.3   0.000   0.019   0.000   0.126     0.5     0.0     3.7   16691     0.0     145    0.00    0.15    0.00    0.93     0.0     0.0     0.0     0.0     0.0     0.0     0.0     0.0     0.0      1.      0.     39.     28.     27.     24.      8.      8.      9.     0.0     0.0     0.0     0.0     0.0     0.0     0.0     0.0     0.0     0.0     0.0     0.0     0.0     0.0     0.0     0.0     0.0     0.0     0.0     0.0     0.3     0.2     0.2     0.2     0.1     0.0     0.0
 2020 172    18    0.01    0.00    0.07     145    0.00    19.4   0.000   0.019   0.000   0.127     0.6     0.0     4.7   14440     0.0     140    0.00    0.14    0.00    0.91     0.0     0.0     0.0     0.0     0.0     0.0     0.0     0.0     0.0      6.      7.     34.     25.     24.     21.      7.      7.      8.     0.0     0.0     0.0     0.0     0.0     0.0     0.0     0.0     0.0     0.0     0.0     0.0     0.0     0.0     0.0     0.0     0.0     0.0     0.0     0.1     0.2     0.2     0.2     0.2     0.1     0.0     0.0
 2020 173    19    0.01    0.00    0.07     157    0.00    19.6   0.000   0.020   0.000   0.128     0.7     0.0     5.5   12815     0.0     157    0.00    0.16    0.00    1.04     0.0     0.0     0.0     0.0     0.0     0.0     0.0     0.0     0.0     13.     20.     34.     25.     23.     20.      7.      7.      8.     0.0     0.0     0.0     0.0     0.0     0.0     0.0     0.0     0.0     0.0     0.0     0.0     0.0     0.0     0.0     0.0     0.0     0.0     0.1     0.1     0.2     0.2     0.2     0.1     0.0     0.0     0.0
 2020 174    20    0.01    0.00    0.08     169    0.00    19.8   0.000   0.020   0.000   0.129     0.7     0.0     5.2   11294     0.0     178    0.00    0.18    0.00    1.19     0.0     0.0     0.0     0.0     0.0     0.0     0.0     0.0     0.0     19.     34.     34.     25.     23.     21.      7.      7.      8.     0.0     0.0     0.0     0.0     0.0     0.0     0.0     0.0     0.0     0.0     0.0     0.0     0.0     0.0     0.0     0.0     0.0     0.0     0.1     0.2     0.2     0.2     0.2     0.1     0.0     0.0     0.0
 2020 175    21    0.01    0.00    0.08     178    0.00    20.0   0.000   0.020   0.000   0.130     0.7     0.0     4.9    9788     0.0     185    0.00    0.19    0.00    1.25     0.0     0.0     0.0     0.0     0.0     0.0     0.0     0.0     0.0     21.     44.     33.     24.     22.     20.      6.      7.      7.     0.0     0.0     0.0     0.0     0.0     0.0     0.0     0.0     0.0     0.0     0.0     0.0     0.0     0.0     0.0     0.0     0.0     0.0     0.2     0.3     0.2     0.2     0.2     0.1     0.0     0.0     0.0
 2020 176    22    0.01    0.00    0.09     187    0.00    20.2   0.000   0.020   0.000   0.132     0.6     0.0     4.6    8808     0.0     196    0.00    0.20    0.00    1.33     0.0     0.0     0.0     0.0     0.0     0.0     0.0     0.0     0.0     23.     53.     33.     24.     23.     20.      6.      7.      7.     0.0     0.1     0.0     0.0     0.0     0.0     0.0     0.0     0.0     0.0     0.0     0.0     0.0     0.0     0.0     0.0     0.0     0.0     0.2     0.4     0.2     0.2     0.2     0.1     0.0     0.0     0.0
 2020 177    23    0.01    0.00    0.09     196    0.00    20.4   0.000   0.020   0.000   0.133     0.6     0.0     4.4    8775     0.0     239    0.00    0.24    0.00    1.63     0.0     0.0     0.0     0.0     0.0     0.0     0.0     0.0     0.0     29.     71.     39.     28.     26.     23.      7.      7.      8.     0.0     0.1     0.0     0.0     0.0     0.0     0.0     0.0     0.0     0.0     0.0     0.0     0.0     0.0     0.0     0.0     0.0     0.0     0.2     0.5     0.3     0.2     0.2     0.2     0.1     0.0     0.0
 2020 178    24    0.01    0.00    0.10     204    0.00    20.7   0.000   0.021   0.000   0.135     0.6     0.0     4.2    8358     0.0     259    0.00    0.26    0.00    1.77     0.0     0.0     0.0     0.0     0.0     0.0     0.0     0.0     0.0     31.     83.     41.     30.     27.     24.      8.      8.      8.     0.0     0.1     0.0     0.0     0.0     0.0     0.0     0.0     0.0     0.0     0.0     0.0     0.0     0.0     0.0     0.0     0.0     0.0     0.2     0.6     0.3     0.2     0.2     0.2     0.1     0.0     0.0
 2020 179    25    0.01    0.00    0.10     212    0.00    20.9   0.000   0.021   0.000   0.137     0.6     0.0     4.0    7924     0.0     273    0.00    0.27    0.00    1.86     0.0     0.0     0.0     0.0     0.0     0.0     0.0     0.0     0.0     32.     91.     42.     30.     28.     25.      8.      8.      9.     0.0     0.1     0.0     0.0     0.0     0.0     0.0     0.0     0.0     0.0     0.0     0.0     0.0     0.0     0.0     0.0     0.0     0.0     0.2     0.7     0.3     0.2     0.2     0.2     0.1     0.0     0.0
 2020 180    26    0.01    0.00    0.11     220    0.00    21.2   0.000   0.021   0.000   0.139     0.6     0.0     3.9    7613     0.0     289    0.00    0.29    0.00    1.98     0.0     0.0     0.0     0.0     0.0     0.0     0.0     0.0     0.0     33.    101.     43.     32.     29.     26.      8.      8.      9.     0.0     0.1     0.0     0.0     0.0     0.0     0.0     0.0     0.0     0.0     0.0     0.0     0.0     0.0     0.0     0.0     0.0     0.0     0.2     0.7     0.3     0.2     0.2     0.2     0.1     0.0     0.0
 2020 181    27    0.01    0.00    0.11     227    0.00    21.5   0.000   0.022   0.000   0.141     0.6     0.0     3.7    7353     0.0     308    0.00    0.31    0.00    2.11     0.0     0.0     0.0     0.0     0.0     0.0     0.0     0.0     0.0     34.    111.     46.     33.     30.     28.      9.      9.      9.     0.0     0.1     0.0     0.0     0.0     0.0     0.0     0.0     0.0     0.0     0.0     0.0     0.0     0.0     0.0     0.0     0.0     0.0     0.3     0.8     0.3     0.2     0.2     0.2     0.1     0.0     0.0
 2020 182    28    0.01    0.00    0.11     237    0.00    21.9   0.000   0.022   0.000   0.143     0.3     0.0     2.0    9595     0.0     369    0.00    0.37    0.00    2.22     0.0     0.0     0.0     0.0     0.0     0.0     0.0     0.0     0.0     66.    137.     47.     33.     30.     28.      9.      9.      9.     0.1     0.1     0.0     0.0     0.0     0.0     0.0     0.0     0.0     0.0     0.0     0.0     0.0     0.0     0.0     0.0     0.0     0.0     0.2     1.0     0.3     0.2     0.2     0.2     0.1     0.0     0.0
 2020 183    29    0.02    0.00    0.12     246    0.00    22.3   0.000   0.022   0.000   0.146     0.5     0.0     3.4    9450     0.0     374    0.00    0.37    0.00    2.56     0.0     0.0     0.0     0.0     0.0     0.0     0.0     0.0     0.0     73.    138.     46.     33.     31.     27.      9.      9.      9.     0.1     0.1     0.0     0.0     0.0     0.0     0.0     0.0     0.0     0.0     0.0     0.0     0.0     0.0     0.0     0.0     0.0     0.0     0.5     1.0     0.3     0.2     0.2     0.2     0.1     0.0     0.0
 2020 184    30    0.02    0.00    0.12     255    0.00    22.6   0.000   0.023   0.000   0.148     0.6     0.0     3.9    8799     0.0     353    0.00    0.35    0.00    2.44     0.0     0.0     0.0     0.0     0.0     0.0     0.0     0.0     0.0     69.    131.     43.     31.     28.     26.      8.      8.      9.     0.1     0.1     0.0     0.0     0.0     0.0     0.0     0.0     0.0     0.0     0.0     0.0     0.0     0.0     0.0     0.0     0.0     0.0     0.5     0.9     0.3     0.2     0.2     0.2     0.1     0.0     0.0
 2020 185    31    0.02    0.00    0.12     263    0.00    23.0   0.000   0.023   0.000   0.151     0.6     0.0     3.7    8130     0.0     348    0.00    0.35    0.00    2.41     0.0     0.0     0.0     0.0     0.0     0.0     0.0     0.0     0.0     64.    131.     43.     31.     28.     26.      8.      8.      9.     0.1     0.1     0.0     0.0     0.0     0.0     0.0     0.0     0.0     0.0     0.0     0.0     0.0     0.0     0.0     0.0     0.0     0.0     0.5     0.9     0.3     0.2     0.2     0.2     0.1     0.0     0.0
 2020 186    32    0.02    0.00    0.13     271    0.00    23.3   0.000   0.023   0.000   0.153     0.6     0.0     3.5    7438     0.0     331    0.00    0.33    0.00    2.29     0.0     0.0     0.0     0.0     0.0     0.0     0.0     0.0     0.0     57.    124.     41.     30.     28.     25.      8.      8.      9.     0.1     0.1     0.0     0.0     0.0     0.0     0.0     0.0     0.0     0.0     0.0     0.0     0.0     0.0     0.0     0.0     0.0     0.0     0.4     0.9     0.3     0.2     0.2     0.2     0.1     0.0     0.0
 2020 187    33    0.02    0.00    0.13     277    0.00    23.6   0.000   0.024   0.000   0.155     0.5     0.0     3.4    6677     0.0     305    0.00    0.31    0.00    2.10     0.0     0.0     0.0     0.0     0.0     0.0     0.0     0.0     0.0     50.    114.     39.     29.     26.     24.      8.      8.      8.     0.0     0.1     0.0     0.0     0.0     0.0     0.0     0.0     0.0     0.0     0.0     0.0     0.0     0.0     0.0     0.0     0.0     0.0     0.4     0.8     0.3     0.2     0.2     0.2     0.1     0.0     0.0
 2020 188    34    0.02    0.00    0.13     283    0.00    23.9   0.000   0.024   0.000   0.157     0.5     0.0     3.2    5880     0.0     278    0.00    0.28    0.00    1.91     0.0     0.0     0.0     0.0     0.0     0.0     0.0     0.0     0.0     43.    104.     36.     27.     25.     22.      7.      7.      8.     0.0     0.1     0.0     0.0     0.0     0.0     0.0     0.0     0.0     0.0     0.0     0.0     0.0     0.0     0.0     0.0     0.0     0.0     0.3     0.8     0.2     0.2     0.2     0.2     0.0     0.0     0.0
 2020 189    35    0.02    0.00    0.14     289    0.00    24.2   0.000   0.024   0.000   0.159     0.5     0.0     3.0    5506     0.0     276    0.00    0.28    0.00    1.90     0.0     0.0     0.0     0.0     0.0     0.0     0.0     0.0     0.0     40.    103.     36.     26.     25.     22.      7.      7.      8.     0.0     0.1     0.0     0.0     0.0     0.0     0.0     0.0     0.0     0.0     0.0     0.0     0.0     0.0     0.0     0.0     0.0     0.0     0.3     0.7     0.3     0.2     0.2     0.2     0.1     0.0     0.0
 2020 190    36    0.02    0.00    0.14     294    0.00    24.4   0.000   0.024   0.000   0.161     0.5     0.0     2.9    5137     0.0     268    0.00    0.27    0.00    1.84     0.0     0.0     0.0     0.0     0.0     0.0     0.0     0.0     0.0     36.    101.     36.     26.     25.     22.      7.      7.      8.     0.0     0.1     0.0     0.0     0.0     0.0     0.0     0.0     0.0     0.0     0.0     0.0     0.0     0.0     0.0     0.0     0.0     0.0     0.3     0.7     0.3     0.2     0.2     0.2     0.1     0.0     0.0
 2020 191    37    0.02    0.00    0.14     299    0.00    24.7   0.000   0.025   0.000   0.163     0.5     0.0     2.8    4989     0.0     278    0.00    0.28    0.00    1.91     0.0     0.0     0.0     0.0     0.0     0.0     0.0     0.0     0.0     35.    105.     38.     27.     26.     23.      7.      8.      8.     0.0     0.1     0.0     0.0     0.0     0.0     0.0     0.0     0.0     0.0     0.0     0.0     0.0     0.0     0.0     0.0     0.0     0.0     0.3     0.8     0.3     0.2     0.2     0.2     0.1     0.0     0.0
 2020 192    38    0.02    0.00    0.14     304    0.00    25.0   0.000   0.025   0.000   0.165     0.4     0.0     2.6    4736     0.0     273    0.00    0.27    0.00    1.87     0.0     0.0     0.0     0.0     0.0     0.0     0.0     0.0     0.0     33.    103.     38.     27.     26.     23.      8.      8.      8.     0.0     0.1     0.0     0.0     0.0     0.0     0.0     0.0     0.0     0.0     0.0     0.0     0.0     0.0     0.0     0.0     0.0     0.0     0.2     0.7     0.3     0.2     0.2     0.2     0.1     0.0     0.0
 2020 193    39    0.02    0.00    0.15     308    0.00    25.3   0.000   0.025   0.000   0.166     0.4     0.0     2.5    4615     0.0     275    0.00    0.28    0.00    1.89     0.0     0.0     0.0     0.0     0.0     0.0     0.0     0.0     0.0     31.    104.     39.     27.     27.     23.      8.      8.      9.     0.0     0.1     0.0     0.0     0.0     0.0     0.0     0.0     0.0     0.0     0.0     0.0     0.0     0.0     0.0     0.0     0.0     0.0     0.2     0.8     0.3     0.2     0.2     0.2     0.1     0.0     0.0
 2020 194    40    0.02    0.00    0.15     313    0.00    25.5   0.000   0.026   0.000   0.168     0.4     0.0     2.4    4442     0.0     279    0.00    0.28    0.00    1.91     0.0     0.0     0.0     0.0     0.0     0.0     0.0     0.0     0.0     29.    105.     40.     29.     27.     24.      8.      8.      9.     0.0     0.1     0.0     0.0     0.0     0.0     0.0     0.0     0.0     0.0     0.0     0.0     0.0     0.0     0.0     0.0     0.0     0.0     0.2     0.8     0.3     0.2     0.2     0.2     0.1     0.0     0.0
 2020 195    41    0.02    0.00    0.15     317    0.00    25.8   0.000   0.026   0.000   0.170     0.4     0.0     2.4    4252     0.0     271    0.00    0.27    0.00    1.85     0.0     0.0     0.0     0.0     0.0     0.0     0.0     0.0     0.0     27.    101.     39.     28.     27.     24.      8.      8.      9.     0.0     0.1     0.0     0.0     0.0     0.0     0.0     0.0     0.0     0.0     0.0     0.0     0.0     0.0     0.0     0.0     0.0     0.0     0.2     0.7     0.3     0.2     0.2     0.2     0.1     0.0     0.0
 2020 196    42    0.02    0.00    0.15     321    0.00    26.1   0.000   0.026   0.000   0.177     0.4     0.0     2.6    3953     0.0     249    0.00    0.25    0.00    6.37     0.0     0.0     0.0     0.0     0.0     0.0     0.0     0.0     0.0     23.     92.     37.     26.     25.     22.      7.      8.      8.     0.0     0.1     0.0     0.0     0.0     0.0     0.0     0.0     0.0     0.0     0.0     0.0     0.0     0.0     0.0     0.0     0.0     0.0     0.6     2.5     1.0     0.7     0.7     0.6     0.2     0.1     0.0
 2020 197    43    0.02    0.00    0.16     326    0.00    26.3   0.000   0.026   0.000   0.183     0.4     0.0     2.9    4942     0.0     284    0.00    0.28    0.00    5.96     0.0     0.0     0.0     0.0     0.0     0.0     0.0     0.0     0.0     64.     88.     36.     25.     25.     22.      7.      7.      8.     0.1     0.1     0.0     0.0     0.0     0.0     0.0     0.0     0.0     0.0     0.0     0.0     0.0     0.0     0.0     0.0     0.0     0.0     1.4     1.9     0.8     0.5     0.5     0.5     0.2     0.1     0.0
 2020 198    44    0.02    0.00    0.16     330    0.00    26.6   0.000   0.027   0.000   0.187     0.4     0.0     3.2    4567     0.0     266    0.00    0.27    0.00    4.53     0.0     0.0     0.0     0.0     0.0     0.0     0.0     0.0     0.0     55.     83.     35.     25.     24.     21.      7.      7.      8.     0.1     0.1     0.0     0.0     0.0     0.0     0.0     0.0     0.0     0.0     0.0     0.0     0.0     0.0     0.0     0.0     0.0     0.0     1.0     1.5     0.6     0.4     0.4     0.4     0.1     0.1     0.0
 2020 199    45    0.02    0.00    0.16     335    0.00    26.9   0.000   0.027   0.000   0.191     0.4     0.0     3.2    4220     0.0     251    0.00    0.25    0.00    3.46     0.0     0.0     0.0     0.0     0.0     0.0     0.0     0.0     0.0     48.     79.     34.     24.     24.     21.      7.      7.      8.     0.0     0.1     0.0     0.0     0.0     0.0     0.0     0.0     0.0     0.0     0.0     0.0     0.0     0.0     0.0     0.0     0.0     0.0     0.7     1.1     0.5     0.3     0.3     0.3     0.1     0.1     0.0
 2020 200    46    0.02    0.00    0.17     340    0.00    27.1   0.000   0.027   0.000   0.194     0.3     0.0     2.6    4913     0.0     286    0.00    0.29    0.00    3.12     0.0     0.0     0.0     0.0     0.0     0.0     0.0     0.0     0.0     63.     97.     34.     25.     24.     21.      7.      7.      8.     0.1     0.1     0.0     0.0     0.0     0.0     0.0     0.0     0.0     0.0     0.0     0.0     0.0     0.0     0.0     0.0     0.0     0.0     0.7     1.2     0.4     0.3     0.3     0.2     0.1     0.1     0.0
 2020 201    47    0.02    0.00    0.17     344    0.00    27.4   0.000   0.027   0.000   0.196     0.2     0.0     1.9    4921     0.0     304    0.00    0.30    0.00    2.25     0.0     0.0     0.0     0.0     0.0     0.0     0.0     0.0     0.0     61.    108.     40.     25.     24.     22.      7.      7.      8.     0.1     0.1     0.0     0.0     0.0     0.0     0.0     0.0     0.0     0.0     0.0     0.0     0.0     0.0     0.0     0.0     0.0     0.0     0.3     0.9     0.4     0.2     0.2     0.2     0.1     0.0     0.0
 2020 202    48    0.02    0.00    0.17     349    0.00    27.7   0.000   0.028   0.000   0.198     0.3     0.0     2.9    5000     0.0     295    0.00    0.30    0.00    2.09     0.0     0.0     0.0     0.0     0.0     0.0     0.0     0.0     0.0     61.    104.     38.     25.     24.     21.      7.      7.      8.     0.1     0.1     0.0     0.0     0.0     0.0     0.0     0.0     0.0     0.0     0.0     0.0     0.0     0.0     0.0     0.0     0.0     0.0     0.4     0.8     0.3     0.2     0.2     0.2     0.1     0.0     0.0
 2020 203    49    0.02    0.00    0.17     355    0.00    28.0   0.000   0.028   0.000   0.200     0.4     0.0     3.4    5062     0.0     306    0.00    0.31    0.00    2.11     0.0     0.0     0.0     0.0     0.0     0.0     0.0     0.0     0.0     63.    107.     38.     26.     27.     22.      7.      8.      8.     0.1     0.1     0.0     0.0     0.0     0.0     0.0     0.0     0.0     0.0     0.0     0.0     0.0     0.0     0.0     0.0     0.0     0.0     0.5     0.8     0.3     0.2     0.2     0.2     0.1     0.0     0.0
 2020 204    50    0.02    0.00    0.18     359    0.00    28.3   0.000   0.028   0.000   0.202     0.4     0.0     3.2    4625     0.0     290    0.00    0.29    0.00    2.00     0.0     0.0     0.0     0.0     0.0     0.0     0.0     0.0     0.0     54.    105.     37.     25.     26.     21.      7.      7.      8.     0.1     0.1     0.0     0.0     0.0     0.0     0.0     0.0     0.0     0.0     0.0     0.0     0.0     0.0     0.0     0.0     0.0     0.0     0.4     0.8     0.3     0.2     0.2     0.2     0.0     0.0     0.0
 2020 205    51    0.02    0.00    0.18     363    0.00    28.6   0.000   0.029   0.000   0.204     0.4     0.0     3.1    4337     0.0     277    0.00    0.28    0.00    1.91     0.0     0.0     0.0     0.0     0.0     0.0     0.0     0.0     0.0     48.    101.     36.     25.     25.     21.      7.      7.      8.     0.0     0.1     0.0     0.0     0.0     0.0     0.0     0.0     0.0     0.0     0.0     0.0     0.0     0.0     0.0     0.0     0.0     0.0     0.4     0.7     0.2     0.2     0.2     0.2     0.0     0.0     0.0
 2020 206    52    0.02    0.00    0.18     368    0.00    28.9   0.000   0.029   0.000   0.206     0.4     0.0     2.9    4077     0.0     267    0.00    0.27    0.00    1.83     0.0     0.0     0.0     0.0     0.0     0.0     0.0     0.0     0.0     43.     98.     35.     24.     24.     21.      7.      7.      8.     0.0     0.1     0.0     0.0     0.0     0.0     0.0     0.0     0.0     0.0     0.0     0.0     0.0     0.0     0.0     0.0     0.0     0.0     0.3     0.7     0.2     0.2     0.2     0.1     0.0     0.0     0.0
 2020 207    53    0.03    0.00    0.19     372    0.00    29.2   0.000   0.029   0.000   0.208     0.4     0.0     2.8    4049     0.0     280    0.00    0.28    0.00    1.92     0.0     0.0     0.0     0.0     0.0     0.0     0.0     0.0     0.0     42.    103.     37.     26.     26.     22.      7.      8.      8.     0.0     0.1     0.0     0.0     0.0     0.0     0.0     0.0     0.0     0.0     0.0     0.0     0.0     0.0     0.0     0.0     0.0     0.0     0.3     0.7     0.3     0.2     0.2     0.2     0.1     0.0     0.0
 2020 208    54    0.03    0.00    0.19     376    0.00    29.4   0.000   0.029   0.000   0.210     0.3     0.0     2.7    4044     0.0     286    0.00    0.29    0.00    1.97     0.0     0.0     0.0     0.0     0.0     0.0     0.0     0.0     0.0     41.    105.     39.     27.     27.     23.      8.      8.      9.     0.0     0.1     0.0     0.0     0.0     0.0     0.0     0.0     0.0     0.0     0.0     0.0     0.0     0.0     0.0     0.0     0.0     0.0     0.3     0.8     0.3     0.2     0.2     0.2     0.1     0.0     0.0
 2020 209    55    0.03    0.00    0.19     380    0.00    29.8   0.000   0.030   0.000   0.211     0.2     0.0     1.3    4247     0.0     316    0.00    0.32    0.00    0.97     0.0     0.0     0.0     0.0     0.0     0.0     0.0     0.0     0.0     65.    101.     36.     29.     28.     32.      8.      8.      9.     0.1     0.1     0.0     0.0     0.0     0.0     0.0     0.0     0.0     0.0     0.0     0.0     0.0     0.0     0.0     0.0     0.0     0.0     0.2     0.2     0.1     0.1     0.1     0.2     0.1     0.0     0.0
 2020 210    56    0.03    0.00    0.19     384    0.00    30.1   0.000   0.030   0.000   0.212     0.2     0.0     1.6    4201     0.0     305    0.00    0.30    0.00    1.32     0.0     0.0     0.0     0.0     0.0     0.0     0.0     0.0     0.0     63.    100.     38.     26.     26.     27.      9.      8.      9.     0.1     0.1     0.0     0.0     0.0     0.0     0.0     0.0     0.0     0.0     0.0     0.0     0.0     0.0     0.0     0.0     0.0     0.0     0.3     0.5     0.1     0.1     0.1     0.2     0.1     0.0     0.0
 2020 211    57    0.03    0.00    0.19     388    0.00    30.3   0.000   0.030   0.000   0.214     0.3     0.0     2.2    4141     0.0     268    0.00    0.27    0.00    1.66     0.0     0.0     0.0     0.0     0.0     0.0     0.0     0.0     0.0     54.     87.     33.     24.     23.     23.      8.      7.      8.     0.1     0.1     0.0     0.0     0.0     0.0     0.0     0.0     0.0     0.0     0.0     0.0     0.0     0.0     0.0     0.0     0.0     0.0     0.4     0.6     0.2     0.1     0.1     0.2     0.1     0.0     0.0
 2020 212    58    0.03    0.00    0.20     392    0.00    30.6   0.000   0.031   0.000   0.215     0.2     0.0     1.4    3785     0.0     257    0.00    0.26    0.00    1.42     0.0     0.0     0.0     0.0     0.0     0.0     0.0     0.0     0.0     50.     84.     33.     23.     23.     21.      8.      7.      8.     0.1     0.1     0.0     0.0     0.0     0.0     0.0     0.0     0.0     0.0     0.0     0.0     0.0     0.0     0.0     0.0     0.0     0.0     0.2     0.6     0.2     0.1     0.1     0.2     0.1     0.0     0.0
 2020 213    59    0.03    0.00    0.20     396    0.02    30.8   0.001   0.031   0.016   0.226     0.4     1.0     2.9    3588    17.4     230    1.44    0.23   15.97   10.89     3.8     2.5     2.4     3.2     3.7     1.9     0.0     0.0     0.0     45.     75.     29.     21.     21.     19.      7.      7.      7.     0.5     0.3     0.2     0.3     0.3     0.1     0.0     0.0     0.0     3.3     2.3     2.2     3.0     3.4     1.8     0.0     0.0     0.0     3.2     1.9     1.3     1.6     1.9     1.0     0.0     0.0     0.0
 2020 214    60    0.03    0.00    0.20     399    0.02    31.0   0.002   0.031   0.019   0.229     0.5     1.1     3.3    3418     3.4     213    0.23    0.21    3.17    3.01     0.0     0.0     0.5     1.0     1.3     0.6     0.0     0.0     0.0     41.     69.     27.     19.     19.     18.      6.      6.      7.     0.0     0.1     0.1     0.1     0.1     0.1     0.0     0.0     0.0     0.0     0.0     0.4     1.0     1.2     0.6     0.0     0.0     0.0     0.3     0.5     0.4     0.6     0.7     0.4     0.0     0.0     0.0
 2020 215    61    0.03    0.00    0.20     402    0.02    31.3   0.002   0.031   0.020   0.231     0.5     1.1     3.0    3280     0.9     225    0.06    0.23    0.82    1.93     0.0     0.0     0.0     0.2     0.4     0.3     0.0     0.0     0.0     40.     76.     29.     21.     21.     19.      7.      7.      7.     0.0     0.1     0.0     0.0     0.0     0.0     0.0     0.0     0.0     0.0     0.0     0.0     0.2     0.3     0.3     0.0     0.0     0.0     0.3     0.5     0.2     0.2     0.3     0.3     0.0     0.0     0.0
 2020 216    62    0.03    0.00    0.21     405    0.02    31.5   0.002   0.031   0.020   0.233     0.4     1.1     2.8    3111     0.2     224    0.01    0.22    0.15    1.60     0.0     0.0     0.0     0.0     0.1     0.1     0.0     0.0     0.0     35.     74.     30.     22.     22.     20.      6.      7.      8.     0.0     0.1     0.0     0.0     0.0     0.0     0.0     0.0     0.0     0.0     0.0     0.0     0.0     0.1     0.1     0.0     0.0     0.0     0.3     0.5     0.2     0.2     0.2     0.2     0.0     0.0     0.0
 2020 217    63    0.03    0.00    0.21     409    0.02    31.7   0.002   0.032   0.020   0.234     0.2     0.6     1.6    3166     0.0     220    0.00    0.22    0.00    1.31     0.0     0.0     0.0     0.0     0.0     0.0     0.0     0.0     0.0     42.     72.     28.     20.     20.     17.      6.      7.      7.     0.0     0.1     0.0     0.0     0.0     0.0     0.0     0.0     0.0     0.0     0.0     0.0     0.0     0.0     0.0     0.0     0.0     0.0     0.1     0.5     0.2     0.1     0.1     0.1     0.0     0.0     0.0
 2020 218    64    0.03    0.01    0.21     412    0.02    31.9   0.002   0.032   0.020   0.235     0.3     0.8     1.9    3230     0.0     230    0.00    0.23    0.00    1.43     0.0     0.0     0.0     0.0     0.0     0.0     0.0     0.0     0.0     45.     75.     29.     21.     21.     18.      6.      7.      7.     0.0     0.1     0.0     0.0     0.0     0.0     0.0     0.0     0.0     0.0     0.0     0.0     0.0     0.0     0.0     0.0     0.0     0.0     0.2     0.5     0.2     0.1     0.1     0.1     0.0     0.0     0.0
 2020 219    65    0.03    0.01    0.21     415    0.02    32.2   0.002   0.032   0.020   0.237     0.4     1.2     2.8    3270     0.0     231    0.00    0.23    0.00    1.57     0.0     0.0     0.0     0.0     0.0     0.0     0.0     0.0     0.0     45.     75.     30.     21.     21.     19.      6.      7.      8.     0.0     0.1     0.0     0.0     0.0     0.0     0.0     0.0     0.0     0.0     0.0     0.0     0.0     0.0     0.0     0.0     0.0     0.0     0.3     0.5     0.2     0.1     0.1     0.1     0.0     0.0     0.0
 2020 220    66    0.03    0.01    0.22     418    0.02    32.4   0.002   0.032   0.020   0.238     0.2     0.7     1.5    2933     0.0     221    0.00    0.22    0.00    1.15     0.0     0.0     0.0     0.0     0.0     0.0     0.0     0.0     0.0     41.     72.     29.     21.     21.     18.      6.      7.      7.     0.0     0.1     0.0     0.0     0.0     0.0     0.0     0.0     0.0     0.0     0.0     0.0     0.0     0.0     0.0     0.0     0.0     0.0     0.1     0.4     0.2     0.1     0.1     0.1     0.0     0.0     0.0
 2020 221    67    0.03    0.01    0.22     421    0.03    32.6   0.002   0.033   0.026   0.244     0.5     2.0     3.3    3179     6.7     237    0.70    0.24    6.01    6.35     3.3     3.4     0.0     0.0     0.0     0.0     0.0     0.0     0.0     46.     75.     30.     22.     22.     19.      7.      7.      8.     0.4     0.4     0.0     0.0     0.0     0.0     0.0     0.0     0.0     2.9     3.1     0.0     0.0     0.0     0.0     0.0     0.0     0.0     3.1     2.5     0.2     0.2     0.2     0.1     0.0     0.0     0.0
 2020 222    68    0.03    0.01    0.22     425    0.03    32.9   0.002   0.033   0.026   0.246     0.6     2.2     3.6    3420     0.3     262    0.03    0.26    0.32    2.00     0.0     0.3     0.0     0.0     0.0     0.0     0.0     0.0     0.0     51.     84.     34.     25.     24.     22.      7.      7.      8.     0.1     0.1     0.0     0.0     0.0     0.0     0.0     0.0     0.0     0.0     0.3     0.0     0.0     0.0     0.0     0.0     0.0     0.0     0.4     0.8     0.2     0.2     0.2     0.2     0.1     0.0     0.0
 2020 223    69    0.03    0.01    0.23     428    0.03    33.2   0.002   0.033   0.026   0.248     0.5     2.0     3.3    3381     0.0     275    0.00    0.28    0.00    1.89     0.0     0.0     0.0     0.0     0.0     0.0     0.0     0.0     0.0     48.     91.     37.     27.     26.     23.      8.      8.      9.     0.0     0.1     0.0     0.0     0.0     0.0     0.0     0.0     0.0     0.0     0.0     0.0     0.0     0.0     0.0     0.0     0.0     0.0     0.4     0.7     0.3     0.2     0.2     0.2     0.1     0.0     0.0
 2020 224    70    0.03    0.02    0.23     431    0.03    33.4   0.002   0.033   0.026   0.250     0.5     1.8     3.1    3352     0.0     277    0.00    0.28    0.00    1.90     0.0     0.0     0.0     0.0     0.0     0.0     0.0     0.0     0.0     45.     92.     38.     27.     27.     23.      8.      8.      9.     0.0     0.1     0.0     0.0     0.0     0.0     0.0     0.0     0.0     0.0     0.0     0.0     0.0     0.0     0.0     0.0     0.0     0.0     0.3     0.7     0.3     0.2     0.2     0.2     0.1     0.0     0.0
 2020 225    71    0.03    0.02    0.23     435    0.03    33.7   0.002   0.034   0.026   0.252     0.5     1.6     2.9    3326     0.0     280    0.00    0.28    0.00    1.91     0.0     0.0     0.0     0.0     0.0     0.0     0.0     0.0     0.0     43.     93.     39.     28.     27.     24.      8.      8.      9.     0.0     0.1     0.0     0.0     0.0     0.0     0.0     0.0     0.0     0.0     0.0     0.0     0.0     0.0     0.0     0.0     0.0     0.0     0.3     0.7     0.3     0.2     0.2     0.2     0.1     0.0     0.0
 2020 226    72    0.03    0.02    0.23     438    0.03    34.0   0.002   0.034   0.026   0.254     0.4     1.4     2.7    3228     0.0     263    0.00    0.26    0.00    1.80     0.0     0.0     0.0     0.0     0.0     0.0     0.0     0.0     0.0     38.     87.     37.     27.     26.     23.      8.      8.      9.     0.0     0.1     0.0     0.0     0.0     0.0     0.0     0.0     0.0     0.0     0.0     0.0     0.0     0.0     0.0     0.0     0.0     0.0     0.3     0.6     0.3     0.2     0.2     0.2     0.1     0.0     0.0
 2020 227    73    0.03    0.02    0.24     441    0.03    34.2   0.002   0.034   0.026   0.256     0.4     1.2     2.6    3051     0.0     249    0.00    0.25    0.00    1.69     0.0     0.0     0.0     0.0     0.0     0.0     0.0     0.0     0.0     34.     81.     36.     26.     26.     23.      8.      8.      9.     0.0     0.1     0.0     0.0     0.0     0.0     0.0     0.0     0.0     0.0     0.0     0.0     0.0     0.0     0.0     0.0     0.0     0.0     0.3     0.6     0.2     0.2     0.2     0.2     0.1     0.0     0.0
 2020 228    74    0.03    0.02    0.24     444    0.03    34.5   0.002   0.034   0.026   0.257     0.4     1.0     2.4    2905     0.0     234    0.00    0.23    0.00    1.59     0.0     0.0     0.0     0.0     0.0     0.0     0.0     0.0     0.0     30.     75.     34.     25.     25.     22.      7.      8.      8.     0.0     0.1     0.0     0.0     0.0     0.0     0.0     0.0     0.0     0.0     0.0     0.0     0.0     0.0     0.0     0.0     0.0     0.0     0.2     0.5     0.2     0.2     0.2     0.2     0.1     0.0     0.0
 2020 229    75    0.03    0.02    0.24     447    0.03    34.7   0.002   0.035   0.026   0.259     0.4     0.9     2.3    2794     0.0     225    0.00    0.23    0.00    1.53     0.0     0.0     0.0     0.0     0.0     0.0     0.0     0.0     0.0     26.     72.     33.     24.     24.     22.      7.      8.      8.     0.0     0.1     0.0     0.0     0.0     0.0     0.0     0.0     0.0     0.0     0.0     0.0     0.0     0.0     0.0     0.0     0.0     0.0     0.2     0.5     0.2     0.2     0.2     0.2     0.1     0.0     0.0
 2020 230    76    0.03    0.02    0.24     450    0.03    34.9   0.002   0.035   0.026   0.260     0.3     0.7     2.1    3224     0.0     252    0.00    0.25    0.00    1.72     0.0     0.0     0.0     0.0     0.0     0.0     0.0     0.0     0.0     52.     74.     33.     24.     24.     22.      7.      8.      8.     0.1     0.1     0.0     0.0     0.0     0.0     0.0     0.0     0.0     0.0     0.0     0.0     0.0     0.0     0.0     0.0     0.0     0.0     0.4     0.5     0.2     0.2     0.2     0.2     0.1     0.0     0.0
 2020 231    77    0.03    0.02    0.24     453    0.03    35.2   0.002   0.035   0.026   0.262     0.2     0.4     1.2    3117     0.0     255    0.00    0.26    0.00    1.45     0.0     0.0     0.0     0.0     0.0     0.0     0.0     0.0     0.0     49.     77.     35.     25.     25.     22.      7.      8.      8.     0.0     0.1     0.0     0.0     0.0     0.0     0.0     0.0     0.0     0.0     0.0     0.0     0.0     0.0     0.0     0.0     0.0     0.0     0.1     0.5     0.2     0.2     0.2     0.2     0.1     0.0     0.0
 2020 232    78    0.03    0.02    0.25     456    0.03    35.5   0.002   0.035   0.026   0.264     0.3     0.5     1.9    3210     0.0     258    0.00    0.26    0.00    1.73     0.0     0.0     0.0     0.0     0.0     0.0     0.0     0.0     0.0     51.     76.     35.     25.     25.     23.      8.      8.      9.     0.1     0.1     0.0     0.0     0.0     0.0     0.0     0.0     0.0     0.0     0.0     0.0     0.0     0.0     0.0     0.0     0.0     0.0     0.4     0.5     0.2     0.2     0.2     0.2     0.1     0.0     0.0
 2020 233    79    0.03    0.02    0.25     459    0.03    35.7   0.002   0.036   0.026   0.265     0.3     0.5     2.2    3127     0.0     252    0.00    0.25    0.00    1.72     0.0     0.0     0.0     0.0     0.0     0.0     0.0     0.0     0.0     49.     75.     34.     25.     25.     22.      7.      8.      8.     0.0     0.1     0.0     0.0     0.0     0.0     0.0     0.0     0.0     0.0     0.0     0.0     0.0     0.0     0.0     0.0     0.0     0.0     0.4     0.5     0.2     0.2     0.2     0.2     0.1     0.0     0.0
 2020 234    80    0.04    0.02    0.25     462    0.03    36.0   0.002   0.036   0.026   0.267     0.3     0.5     2.1    3043     0.0     248    0.00    0.25    0.00    1.69     0.0     0.0     0.0     0.0     0.0     0.0     0.0     0.0     0.0     44.     74.     34.     25.     25.     22.      7.      8.      8.     0.0     0.1     0.0     0.0     0.0     0.0     0.0     0.0     0.0     0.0     0.0     0.0     0.0     0.0     0.0     0.0     0.0     0.0     0.3     0.5     0.2     0.2     0.2     0.2     0.1     0.0     0.0
 2020 235    81    0.04    0.02    0.25     465    0.03    36.2   0.002   0.036   0.026   0.269     0.3     0.4     2.0    2995     0.0     242    0.00    0.24    0.00    1.65     0.0     0.0     0.0     0.0     0.0     0.0     0.0     0.0     0.0     40.     73.     34.     25.     25.     22.      7.      8.      8.     0.0     0.1     0.0     0.0     0.0     0.0     0.0     0.0     0.0     0.0     0.0     0.0     0.0     0.0     0.0     0.0     0.0     0.0     0.3     0.5     0.2     0.2     0.2     0.2     0.1     0.0     0.0
 2020 236    82    0.04    0.02    0.25     468    0.03    36.4   0.002   0.036   0.026   0.270     0.2     0.2     1.1    2961     0.0     247    0.00    0.25    0.00    1.43     0.0     0.0     0.0     0.0     0.0     0.0     0.0     0.0     0.0     45.     73.     35.     25.     25.     22.      7.      8.      9.     0.0     0.1     0.0     0.0     0.0     0.0     0.0     0.0     0.0     0.0     0.0     0.0     0.0     0.0     0.0     0.0     0.0     0.0     0.1     0.5     0.2     0.2     0.2     0.2     0.1     0.0     0.0
 2020 237    83    0.04    0.02    0.26     471    0.03    36.7   0.002   0.037   0.026   0.272     0.3     0.3     1.8    3063     0.0     255    0.00    0.25    0.00    1.71     0.0     0.0     0.0     0.0     0.0     0.0     0.0     0.0     0.0     48.     73.     35.     25.     25.     23.      8.      8.      9.     0.0     0.1     0.0     0.0     0.0     0.0     0.0     0.0     0.0     0.0     0.0     0.0     0.0     0.0     0.0     0.0     0.0     0.0     0.3     0.5     0.2     0.2     0.2     0.2     0.1     0.0     0.0
 2020 238    84    0.04    0.03    0.26     474    0.03    37.0   0.002   0.037   0.026   0.273     0.2     0.2     1.1    3030     0.0     261    0.00    0.26    0.00    1.44     0.0     0.0     0.0     0.0     0.0     0.0     0.0     0.0     0.0     47.     77.     36.     26.     26.     24.      8.      8.      9.     0.0     0.1     0.0     0.0     0.0     0.0     0.0     0.0     0.0     0.0     0.0     0.0     0.0     0.0     0.0     0.0     0.0     0.0     0.1     0.4     0.2     0.2     0.2     0.2     0.1     0.0     0.0
 2020 239    85    0.04    0.03    0.26     478    0.03    37.2   0.002   0.037   0.026   0.275     0.3     0.2     1.8    3119     0.0     267    0.00    0.27    0.00    1.77     0.0     0.0     0.0     0.0     0.0     0.0     0.0     0.0     0.0     50.     77.     37.     27.     27.     24.      8.      8.      9.     0.0     0.1     0.0     0.0     0.0     0.0     0.0     0.0     0.0     0.0     0.0     0.0     0.0     0.0     0.0     0.0     0.0     0.0     0.3     0.5     0.3     0.2     0.2     0.2     0.1     0.0     0.0
 2020 240    86    0.04    0.03    0.26     481    0.03    37.5   0.002   0.038   0.026   0.277     0.3     0.2     2.1    3199     0.0     273    0.00    0.27    0.00    1.86     0.0     0.0     0.0     0.0     0.0     0.0     0.0     0.0     0.0     51.     79.     38.     28.     27.     25.      8.      8.      9.     0.1     0.1     0.0     0.0     0.0     0.0     0.0     0.0     0.0     0.0     0.0     0.0     0.0     0.0     0.0     0.0     0.0     0.0     0.4     0.6     0.3     0.2     0.2     0.2     0.1     0.0     0.0
 2020 241    87    0.04    0.03    0.26     484    0.03    37.8   0.002   0.038   0.026   0.278     0.2     0.1     1.1    3132     0.0     271    0.00    0.27    0.00    1.59     0.0     0.0     0.0     0.0     0.0     0.0     0.0     0.0     0.0     47.     79.     39.     28.     28.     24.      8.      8.      9.     0.0     0.1     0.0     0.0     0.0     0.0     0.0     0.0     0.0     0.0     0.0     0.0     0.0     0.0     0.0     0.0     0.0     0.0     0.1     0.5     0.3     0.2     0.2     0.2     0.1     0.0     0.0
 2020 242    88    0.04    0.03    0.26     487    0.03    38.0   0.002   0.038   0.026   0.279     0.2     0.1     1.1    2992     0.0     262    0.00    0.26    0.00    0.82     0.0     0.0     0.0     0.0     0.0     0.0     0.0     0.0     0.0     49.     71.     34.     26.     29.     27.      9.      8.      9.     0.0     0.1     0.0     0.0     0.0     0.0     0.0     0.0     0.0     0.0     0.0     0.0     0.0     0.0     0.0     0.0     0.0     0.0     0.2     0.2     0.0     0.0     0.1     0.2     0.1     0.0     0.0
 2020 243    89    0.04    0.03    0.26     490    0.03    38.3   0.002   0.038   0.026   0.280     0.2     0.1     0.9    2759     0.0     222    0.00    0.22    0.00    0.58     0.0     0.0     0.0     0.0     0.0     0.0     0.0     0.0     0.0     36.     59.     31.     23.     25.     23.      8.      8.      9.     0.0     0.1     0.0     0.0     0.0     0.0     0.0     0.0     0.0     0.0     0.0     0.0     0.0     0.0     0.0     0.0     0.0     0.0     0.1     0.1     0.0     0.0     0.1     0.2     0.1     0.0     0.0
 2020 244    90    0.04    0.03    0.27     492    0.03    38.5   0.002   0.039   0.026   0.281     0.3     0.1     1.6    2852     0.0     245    0.00    0.25    0.00    1.36     0.0     0.0     0.0     0.0     0.0     0.0     0.0     0.0     0.0     43.     69.     36.     26.     25.     23.      8.      8.      9.     0.0     0.1     0.0     0.0     0.0     0.0     0.0     0.0     0.0     0.0     0.0     0.0     0.0     0.0     0.0     0.0     0.0     0.0     0.3     0.4     0.2     0.1     0.1     0.2     0.1     0.0     0.0
 2020 245    91    0.04    0.03    0.27     495    0.05    38.7   0.004   0.039   0.046   0.287     0.2     1.1     1.2    2598    20.8     214    1.11    0.21   19.71    6.18     5.3     4.9     4.7     5.9     0.0     0.0     0.0     0.0     0.0     36.     60.     32.     23.     22.     21.      7.      7.      6.     0.3     0.3     0.3     0.4     0.0     0.0     0.0     0.0     0.0     5.1     4.7     4.4     5.5     0.0     0.0     0.0     0.0     0.0     0.9     1.5     1.4     2.0     0.1     0.1     0.0     0.0     0.0
 2020 246    92    0.04    0.03    0.27     498    0.06    38.9   0.004   0.039   0.057   0.293     0.4     2.3     2.1    2461    11.0     193    0.61    0.19   10.42    5.23     1.9     1.6     1.6     2.1     2.2     1.1     0.6     0.0     0.0     33.     52.     28.     20.     20.     19.      6.      7.      8.     0.1     0.1     0.1     0.1     0.2     0.1     0.0     0.0     0.0     1.8     1.5     1.5     2.0     2.1     1.0     0.6     0.0     0.0     1.0     0.8     0.6     0.9     1.0     0.6     0.3     0.0     0.0
 2020 247    93    0.04    0.03    0.27     500    0.08    39.1   0.005   0.039   0.072   0.298     0.3     2.3     1.5    2325    16.7     182    0.87    0.18   15.84    5.69     4.4     3.3     2.0     2.0     2.1     1.2     0.8     0.9     0.0     30.     50.     26.     19.     20.     18.      6.      7.      6.     0.2     0.2     0.1     0.1     0.2     0.1     0.0     0.1     0.0     4.2     3.2     1.9     1.9     2.0     1.1     0.7     0.9     0.0     0.7     1.2     0.7     0.8     1.0     0.6     0.3     0.3     0.0
 2020 248    94    0.04    0.04    0.27     502    0.09    39.3   0.006   0.039   0.081   0.303     0.4     3.8     2.4    2367     9.4     192    0.51    0.19    8.90    4.33     2.8     1.5     0.9     0.9     1.0     0.6     0.8     1.0     0.0     33.     52.     28.     20.     20.     19.      6.      7.      6.     0.2     0.1     0.1     0.1     0.1     0.0     0.0     0.1     0.0     2.6     1.5     0.9     0.9     0.9     0.5     0.7     0.9     0.0     1.2     0.8     0.4     0.5     0.5     0.4     0.3     0.3     0.0
 2020 249    95    0.04    0.04    0.28     505    0.09    39.5   0.006   0.039   0.087   0.306     0.5     4.5     2.8    2371     5.5     189    0.30    0.19    5.24    3.10     1.2     0.7     0.4     0.4     0.5     0.5     0.7     1.0     0.0     32.     51.     28.     20.     20.     19.      6.      7.      7.     0.1     0.1     0.0     0.0     0.0     0.0     0.0     0.1     0.0     1.2     0.7     0.4     0.4     0.4     0.5     0.7     0.9     0.0     0.7     0.6     0.3     0.3     0.3     0.3     0.3     0.3     0.0
 2020 250    96    0.04    0.04    0.28     507    0.10    39.7   0.006   0.040   0.091   0.309     0.5     4.7     3.0    2485     4.3     213    0.24    0.21    4.08    2.89     0.6     0.4     0.2     0.2     0.5     0.6     0.8     1.0     0.0     36.     58.     31.     23.     23.     20.      7.      7.      7.     0.1     0.1     0.0     0.0     0.0     0.1     0.1     0.1     0.0     0.6     0.4     0.2     0.2     0.5     0.5     0.7     0.9     0.0     0.5     0.5     0.3     0.2     0.3     0.4     0.3     0.3     0.0
 2020 251    97    0.04    0.05    0.28     510    0.11    39.9   0.007   0.040   0.105   0.313     0.3     2.8     1.5    2561    14.6     231    0.70    0.23   13.89    4.22     3.8     3.3     1.5     0.9     0.8     0.6     0.7     1.3     1.7     31.     67.     35.     26.     25.     23.      7.      8.      8.     0.1     0.2     0.1     0.1     0.1     0.1     0.0     0.1     0.1     3.7     3.2     1.4     0.9     0.7     0.6     0.7     1.2     1.5     0.2     1.2     0.6     0.5     0.5     0.4     0.3     0.4     0.0
 2020 252    98    0.04    0.05    0.28     512    0.12    40.2   0.007   0.040   0.113   0.316     0.4     4.6     2.4    2659     9.0     245    0.48    0.25    8.55    3.48     1.7     1.5     0.7     0.4     0.4     0.6     0.7     1.4     1.8     44.     67.     35.     26.     26.     23.      8.      8.      8.     0.1     0.1     0.1     0.0     0.0     0.1     0.0     0.1     0.2     1.6     1.4     0.7     0.4     0.4     0.6     0.7     1.3     1.6     0.4     0.8     0.4     0.3     0.3     0.4     0.3     0.4     0.0
 2020 253    99    0.04    0.06    0.28     515    0.13    40.4   0.008   0.040   0.127   0.320     0.3     3.3     1.6    2353    14.2     194    0.66    0.19   13.53    3.76     1.7     3.7     2.2     1.4     1.0     0.7     0.6     1.4     1.7     27.     55.     29.     22.     22.     20.      7.      7.      8.     0.0     0.2     0.1     0.1     0.1     0.1     0.0     0.1     0.1     1.6     3.5     2.1     1.3     0.9     0.6     0.6     1.3     1.5     0.1     0.7     0.7     0.6     0.5     0.4     0.3     0.4     0.0
 2020 254   100    0.04    0.06    0.29     516    0.16    40.5   0.009   0.040   0.154   0.325     0.3     3.3     1.6    1820    29.0     130    1.41    0.13   27.56    4.72     0.4     2.2     5.1     7.5     5.5     2.5     1.4     2.2     2.1     19.     32.     18.     15.     16.     15.      5.      5.      6.     0.0     0.1     0.2     0.4     0.4     0.2     0.1     0.2     0.2     0.4     2.1     5.0     7.2     5.2     2.3     1.4     2.0     2.0     0.0     0.1     0.2     0.6     1.4     1.1     0.6     0.6     0.0
 2020 255   101    0.04    0.06    0.29     518    0.19    40.6   0.011   0.041   0.180   0.330     0.4     4.3     2.0    1465    27.0     115    1.31    0.12   25.69    5.02     0.2     1.0     2.5     4.8     5.6     3.5     2.4     3.7     3.3     19.     29.     17.     12.     12.     12.      4.      4.      5.     0.0     0.0     0.1     0.2     0.3     0.2     0.1     0.3     0.1     0.2     1.0     2.4     4.6     5.3     3.3     2.3     3.4     3.2     0.1     0.2     0.2     0.4     0.9     1.4     1.0     1.0     0.0
 2020 256   102    0.04    0.07    0.29     519    0.20    40.7   0.011   0.041   0.190   0.332     0.5     5.6     2.6    1232    10.2      97    0.40    0.10    9.84    2.44     0.1     0.4     0.9     1.6     1.8     1.2     0.9     1.6     1.7     16.     24.     14.     11.     11.     10.      3.      4.      5.     0.0     0.0     0.0     0.1     0.1     0.1     0.1     0.1     0.0     0.1     0.4     0.9     1.5     1.8     1.2     0.9     1.5     1.6     0.1     0.2     0.1     0.3     0.5     0.5     0.3     0.5     0.0
 2020 257   103    0.04    0.07    0.29     520    0.21    40.8   0.012   0.041   0.201   0.335     0.3     3.4     1.5    1107    12.0      88    0.47    0.09   11.55    2.55     0.2     0.4     0.7     1.2     1.7     1.4     1.3     2.5     2.6     11.     23.     13.     10.     10.     10.      3.      4.      5.     0.0     0.0     0.0     0.0     0.1     0.1     0.1     0.2     0.0     0.2     0.4     0.6     1.2     1.7     1.4     1.2     2.3     2.5     0.0     0.2     0.1     0.2     0.4     0.5     0.5     0.7     0.0
 2020 258   104    0.04    0.08    0.29     522    0.22    40.9   0.012   0.041   0.207   0.336     0.4     5.4     2.3    1401     6.0     113    0.21    0.11    5.79    1.69     0.1     0.2     0.3     0.6     0.8     0.7     0.6     1.3     1.4     18.     28.     16.     12.     12.     12.      4.      4.      5.     0.0     0.0     0.0     0.0     0.0     0.0     0.0     0.1     0.0     0.1     0.2     0.3     0.6     0.8     0.6     0.6     1.2     1.4     0.1     0.2     0.1     0.2     0.2     0.3     0.2     0.4     0.0
 2020 259   105    0.04    0.08    0.30     524    0.22    41.1   0.012   0.041   0.212   0.338     0.5     6.6     2.8    1835     4.8     153    0.18    0.15    4.67    1.71     0.1     0.1     0.2     0.3     0.4     0.4     0.3     1.4     1.6     25.     39.     22.     17.     17.     15.      5.      5.      7.     0.0     0.0     0.0     0.0     0.0     0.0     0.0     0.1     0.0     0.1     0.1     0.2     0.3     0.4     0.3     0.3     1.3     1.6     0.2     0.3     0.2     0.1     0.2     0.2     0.1     0.4     0.0
 2020 260   106    0.04    0.09    0.30     526    0.23    41.2   0.012   0.041   0.218   0.340     0.3     3.9     1.6    2059     6.4     181    0.20    0.18    6.19    1.87     0.4     0.4     0.3     0.4     0.5     0.5     0.5     1.4     2.0     25.     49.     28.     20.     20.     19.      6.      6.      8.     0.0     0.1     0.0     0.0     0.0     0.0     0.0     0.1     0.0     0.4     0.4     0.3     0.4     0.5     0.5     0.4     1.3     2.0     0.0     0.3     0.2     0.2     0.2     0.3     0.2     0.4     0.0
 2020 261   107    0.04    0.09    0.30     528    0.24    41.4   0.012   0.041   0.223   0.342     0.5     6.0     2.5    2150     5.2     200    0.17    0.20    5.06    1.93     0.2     0.2     0.2     0.2     0.2     0.2     0.4     1.5     2.1     34.     52.     30.     22.     21.     20.      6.      7.      8.     0.0     0.1     0.0     0.0     0.0     0.0     0.0     0.1     0.0     0.2     0.2     0.1     0.2     0.2     0.2     0.4     1.4     2.1     0.2     0.4     0.2     0.2     0.2     0.2     0.2     0.4     0.0
 2020 262   108    0.04    0.10    0.30     530    0.24    41.6   0.012   0.042   0.227   0.344     0.6     7.2     3.0    2125     4.7     193    0.16    0.19    4.52    1.88     0.1     0.1     0.1     0.1     0.1     0.2     0.4     1.4     2.1     33.     50.     28.     21.     21.     19.      6.      6.      8.     0.0     0.1     0.0     0.0     0.0     0.0     0.0     0.1     0.0     0.1     0.1     0.1     0.1     0.1     0.2     0.4     1.3     2.1     0.2     0.4     0.2     0.2     0.2     0.2     0.2     0.4     0.0
 2020 263   109    0.05    0.11    0.31     532    0.25    41.8   0.013   0.042   0.233   0.345     0.3     4.2     1.7    2065     5.4     180    0.15    0.18    5.24    1.61     0.5     0.4     0.2     0.2     0.2     0.2     0.3     1.2     2.1     25.     49.     28.     20.     20.     19.      6.      6.      8.     0.0     0.1     0.0     0.0     0.0     0.0     0.0     0.1     0.0     0.5     0.4     0.2     0.2     0.2     0.2     0.3     1.1     2.0     0.1     0.3     0.2     0.2     0.2     0.2     0.1     0.4     0.0
 2020 264   110    0.05    0.11    0.31     534    0.25    42.0   0.013   0.042   0.237   0.347     0.5     6.4     2.6    2103     4.6     189    0.14    0.19    4.45    1.71     0.3     0.2     0.1     0.1     0.1     0.2     0.3     1.2     2.1     32.     49.     28.     20.     20.     19.      6.      6.      8.     0.0     0.1     0.0     0.0     0.0     0.0     0.0     0.1     0.0     0.3     0.2     0.1     0.1     0.1     0.2     0.3     1.1     2.0     0.2     0.4     0.2     0.2     0.2     0.2     0.1     0.4     0.0
 2020 265   111    0.05    0.12    0.31     536    0.25    42.2   0.013   0.042   0.241   0.349     0.6     7.5     3.1    2159     4.4     194    0.14    0.19    4.24    1.78     0.2     0.1     0.1     0.1     0.1     0.2     0.3     1.2     2.1     33.     50.     29.     21.     21.     19.      6.      7.      8.     0.0     0.1     0.0     0.0     0.0     0.0     0.0     0.1     0.0     0.2     0.1     0.1     0.1     0.1     0.2     0.3     1.1     2.1     0.2     0.4     0.2     0.2     0.2     0.2     0.1     0.4     0.0
 2020 266   112    0.05    0.12    0.31     538    0.26    42.4   0.013   0.042   0.246   0.351     0.3     4.2     1.7    2163     5.2     191    0.14    0.19    5.07    1.60     0.6     0.4     0.2     0.2     0.2     0.2     0.3     1.1     2.0     26.     51.     29.     22.     21.     20.      7.      7.      8.     0.0     0.1     0.0     0.0     0.0     0.0     0.0     0.1     0.0     0.6     0.4     0.2     0.2     0.2     0.2     0.3     1.0     2.0     0.1     0.4     0.2     0.2     0.2     0.2     0.1     0.3     0.0
 2020 267   113    0.05    0.13    0.32     541    0.26    42.6   0.013   0.043   0.251   0.352     0.5     6.3     2.6    2161     4.4     203    0.13    0.20    4.27    1.73     0.3     0.2     0.1     0.1     0.1     0.2     0.3     1.1     2.0     35.     52.     30.     22.     22.     20.      7.      7.      8.     0.0     0.1     0.0     0.0     0.0     0.0     0.0     0.1     0.0     0.3     0.2     0.1     0.1     0.1     0.2     0.3     1.0     2.0     0.2     0.4     0.2     0.2     0.2     0.2     0.1     0.3     0.0
 2020 268   114    0.05    0.14    0.32     543    0.27    42.8   0.013   0.043   0.255   0.354     0.6     7.3     3.1    2291     4.1     206    0.12    0.21    4.01    1.79     0.2     0.1     0.1     0.1     0.1     0.2     0.3     1.1     2.0     35.     53.     30.     23.     22.     20.      7.      7.      8.     0.0     0.1     0.0     0.0     0.0     0.0     0.0     0.1     0.0     0.2     0.1     0.1     0.1     0.1     0.2     0.3     1.0     2.0     0.2     0.4     0.2     0.2     0.2     0.2     0.1     0.3     0.0
 2020 269   115    0.05    0.14    0.32     545    0.27    43.0   0.013   0.043   0.259   0.356     0.6     7.4     3.3    2381     4.1     219    0.13    0.22    4.02    1.91     0.1     0.1     0.1     0.1     0.1     0.2     0.3     1.1     2.1     37.     57.     32.     24.     24.     22.      7.      7.      9.     0.0     0.1     0.0     0.0     0.0     0.0     0.0     0.1     0.0     0.1     0.1     0.1     0.1     0.1     0.2     0.3     1.0     2.1     0.3     0.4     0.2     0.2     0.2     0.2     0.1     0.3     0.0
 2020 270   116    0.05    0.15    0.32     548    0.28    43.2   0.014   0.043   0.264   0.358     0.4     4.3     1.9    2346     5.8     228    0.15    0.23    5.62    1.89     0.7     0.5     0.2     0.2     0.2     0.4     0.3     1.1     2.2     36.     60.     35.     25.     25.     23.      8.      8.      9.     0.0     0.1     0.0     0.0     0.0     0.0     0.0     0.1     0.0     0.7     0.5     0.2     0.2     0.2     0.4     0.3     1.1     2.1     0.1     0.4     0.2     0.2     0.2     0.2     0.1     0.3     0.0
 2020 271   117    0.05    0.15    0.33     550    0.28    43.5   0.014   0.043   0.269   0.360     0.5     5.9     2.6    2557     5.1     237    0.14    0.24    4.94    2.05     0.4     0.2     0.1     0.1     0.2     0.4     0.3     1.2     2.2     40.     62.     35.     26.     26.     23.      8.      8.      9.     0.0     0.1     0.0     0.0     0.0     0.0     0.0     0.1     0.0     0.4     0.2     0.1     0.1     0.2     0.4     0.3     1.1     2.2     0.3     0.5     0.3     0.2     0.2     0.2     0.1     0.3     0.0
 2020 272   118    0.05    0.16    0.33     552    0.29    43.7   0.014   0.044   0.274   0.362     0.6     6.4     3.0    2379     4.6     217    0.13    0.22    4.49    1.92     0.2     0.1     0.1     0.1     0.2     0.4     0.3     1.1     2.2     36.     56.     33.     24.     24.     22.      7.      7.      9.     0.0     0.1     0.0     0.0     0.0     0.0     0.0     0.1     0.0     0.2     0.1     0.1     0.1     0.2     0.4     0.3     1.0     2.1     0.3     0.4     0.2     0.2     0.2     0.2     0.1     0.3     0.0
 2020 273   119    0.05    0.17    0.33     555    0.29    43.9   0.014   0.044   0.278   0.364     0.6     6.4     3.0    2256     4.2     192    0.12    0.19    4.12    1.73     0.1     0.1     0.1     0.1     0.2     0.3     0.3     1.0     2.1     31.     49.     29.     21.     21.     20.      7.      7.      8.     0.0     0.0     0.0     0.0     0.0     0.0     0.0     0.1     0.0     0.1     0.1     0.1     0.1     0.1     0.3     0.3     1.0     2.0     0.2     0.4     0.2     0.2     0.2     0.2     0.1     0.3     0.0
 2020 274   120    0.05    0.17    0.34     557    0.30    44.1   0.014   0.044   0.282   0.365     0.5     6.0     3.0    2126     4.1     179    0.12    0.18    3.94    1.62     0.1     0.1     0.1     0.1     0.1     0.3     0.3     1.0     2.0     28.     45.     27.     20.     20.     19.      6.      6.      8.     0.0     0.0     0.0     0.0     0.0     0.0     0.0     0.1     0.0     0.1     0.1     0.1     0.1     0.1     0.3     0.2     0.9     2.0     0.2     0.3     0.2     0.1     0.2     0.2     0.1     0.3     0.0
 2020 275   121    0.05    0.18    0.34     559    0.30    44.2   0.014   0.044   0.286   0.367     0.5     5.5     2.8    1959     3.8     159    0.11    0.16    3.70    1.46     0.0     0.1     0.1     0.1     0.1     0.3     0.2     1.0     1.9     25.     40.     24.     18.     18.     17.      6.      6.      7.     0.0     0.0     0.0     0.0     0.0     0.0     0.0     0.1     0.0     0.0     0.1     0.1     0.1     0.1     0.3     0.2     0.9     1.9     0.2     0.3     0.2     0.1     0.1     0.2     0.1     0.3     0.0
 2020 276   122    0.05    0.18    0.34     560    0.30    44.4   0.014   0.044   0.289   0.368     0.5     5.0     2.6    1689     3.6     138    0.10    0.14    3.45    1.29     0.0     0.1     0.1     0.1     0.1     0.3     0.2     0.9     1.8     21.     34.     20.     15.     16.     15.      5.      5.      6.     0.0     0.0     0.0     0.0     0.0     0.0     0.0     0.1     0.0     0.0     0.1     0.1     0.1     0.1     0.3     0.2     0.8     1.8     0.2     0.2     0.1     0.1     0.1     0.2     0.1     0.2     0.0
 2020 277   123    0.05    0.19    0.34     562    0.31    44.5   0.014   0.045   0.293   0.369     0.5     4.6     2.4    1724     3.6     145    0.11    0.14    3.50    1.34     0.0     0.1     0.1     0.1     0.1     0.3     0.2     0.9     1.8     22.     35.     22.     16.     17.     16.      5.      6.      7.     0.0     0.0     0.0     0.0     0.0     0.0     0.0     0.1     0.0     0.0     0.1     0.1     0.1     0.1     0.3     0.2     0.8     1.8     0.2     0.3     0.2     0.1     0.1     0.2     0.1     0.3     0.0
 2020 278   124    0.05    0.19    0.35     564    0.31    44.7   0.014   0.045   0.296   0.371     0.4     4.3     2.3    1769     3.6     149    0.11    0.15    3.54    1.38     0.0     0.1     0.1     0.1     0.1     0.3     0.2     0.9     1.8     22.     37.     22.     17.     17.     16.      6.      6.      7.     0.0     0.0     0.0     0.0     0.0     0.0     0.0     0.1     0.0     0.0     0.1     0.1     0.1     0.1     0.3     0.2     0.8     1.8     0.2     0.3     0.2     0.1     0.1     0.2     0.1     0.3     0.0
 2020 279   125    0.05    0.20    0.35     566    0.31    44.8   0.015   0.045   0.300   0.372     0.4     4.1     2.2    1676     3.6     147    0.11    0.15    3.51    1.36     0.0     0.1     0.1     0.1     0.1     0.3     0.2     0.9     1.8     22.     36.     22.     17.     17.     16.      5.      6.      7.     0.0     0.0     0.0     0.0     0.0     0.0     0.0     0.1     0.0     0.0     0.1     0.1     0.1     0.1     0.3     0.2     0.8     1.8     0.2     0.3     0.2     0.1     0.1     0.2     0.1     0.3     0.0
 2020 280   126    0.05    0.20    0.35     567    0.32    45.0   0.015   0.045   0.303   0.373     0.4     3.9     2.1    1776     3.7     154    0.11    0.15    3.58    1.41     0.0     0.1     0.1     0.1     0.1     0.3     0.2     0.9     1.8     23.     38.     23.     17.     18.     16.      6.      6.      7.     0.0     0.0     0.0     0.0     0.0     0.0     0.0     0.1     0.0     0.0     0.1     0.1     0.1     0.1     0.3     0.2     0.9     1.8     0.2     0.3     0.2     0.1     0.1     0.2     0.1     0.3     0.0
 2020 281   127    0.05    0.20    0.35     569    0.32    45.1   0.015   0.045   0.307   0.375     0.4     3.7     2.0    1923     3.9     171    0.11    0.17    3.76    1.56     0.0     0.1     0.1     0.1     0.1     0.3     0.2     1.0     1.9     26.     42.     26.     19.     19.     18.      6.      6.      7.     0.0     0.0     0.0     0.0     0.0     0.0     0.0     0.1     0.0     0.0     0.1     0.1     0.1     0.1     0.3     0.2     0.9     1.9     0.2     0.3     0.2     0.1     0.2     0.2     0.1     0.3     0.0
 2020 282   128    0.05    0.21    0.35     571    0.33    45.3   0.015   0.045   0.311   0.377     0.4     3.6     2.0    2014     4.0     185    0.12    0.18    3.91    1.66     0.1     0.1     0.1     0.1     0.2     0.3     0.2     1.0     2.0     28.     46.     28.     21.     21.     19.      7.      7.      8.     0.0     0.0     0.0     0.0     0.0     0.0     0.0     0.1     0.0     0.1     0.1     0.1     0.1     0.1     0.3     0.2     0.9     1.9     0.2     0.3     0.2     0.2     0.2     0.2     0.1     0.3     0.0
 2020 283   129    0.05    0.21    0.36     574    0.33    45.5   0.015   0.046   0.315   0.379     0.4     3.5     2.0    2204     4.3     209    0.13    0.21    4.17    1.87     0.1     0.1     0.1     0.1     0.2     0.3     0.3     1.0     2.1     33.     53.     32.     24.     24.     22.      7.      7.      8.     0.0     0.1     0.0     0.0     0.0     0.0     0.0     0.1     0.0     0.1     0.1     0.1     0.1     0.2     0.3     0.3     1.0     2.0     0.2     0.4     0.2     0.2     0.2     0.2     0.1     0.3     0.0
 2020 284   130    0.06    0.21    0.36     576    0.33    45.7   0.015   0.046   0.319   0.380     0.4     3.4     1.9    2250     4.5     221    0.13    0.22    4.34    1.97     0.1     0.1     0.1     0.1     0.2     0.4     0.3     1.1     2.1     35.     56.     34.     25.     25.     23.      8.      8.      9.     0.0     0.1     0.0     0.0     0.0     0.0     0.0     0.1     0.0     0.1     0.1     0.1     0.1     0.2     0.4     0.3     1.0     2.1     0.3     0.4     0.2     0.2     0.2     0.2     0.1     0.3     0.0
 2020 285   131    0.06    0.22    0.36     578    0.34    46.0   0.015   0.046   0.324   0.382     0.4     3.4     1.9    2345     4.5     218    0.13    0.22    4.37    1.95     0.1     0.1     0.2     0.1     0.2     0.4     0.3     1.1     2.2     34.     55.     33.     24.     24.     22.      8.      7.      9.     0.0     0.1     0.0     0.0     0.0     0.0     0.0     0.1     0.0     0.1     0.1     0.1     0.1     0.2     0.4     0.3     1.0     2.1     0.3     0.4     0.2     0.2     0.2     0.2     0.1     0.3     0.0
 2020 286   132    0.06    0.22    0.36     581    0.34    46.2   0.015   0.046   0.328   0.384     0.4     3.3     1.9    2356     4.6     225    0.14    0.23    4.49    2.02     0.1     0.1     0.2     0.1     0.2     0.4     0.3     1.1     2.2     35.     57.     34.     26.     25.     23.      8.      8.      9.     0.0     0.1     0.0     0.0     0.0     0.0     0.0     0.1     0.0     0.1     0.1     0.2     0.1     0.2     0.4     0.3     1.0     2.2     0.3     0.4     0.3     0.2     0.2     0.2     0.1     0.3     0.0
 2020 287   133    0.06    0.22    0.36     583    0.35    46.4   0.016   0.046   0.333   0.386     0.3     3.3     1.9    2183     4.5     201    0.13    0.20    4.33    1.84     0.1     0.1     0.2     0.1     0.2     0.4     0.3     1.1     2.1     31.     51.     31.     23.     23.     21.      7.      7.      8.     0.0     0.1     0.0     0.0     0.0     0.0     0.0     0.1     0.0     0.1     0.1     0.2     0.1     0.2     0.4     0.3     1.0     2.1     0.2     0.4     0.2     0.2     0.2     0.2     0.1     0.3     0.0
 2020 288   134    0.06    0.23    0.37     585    0.35    46.6   0.016   0.047   0.337   0.388     0.3     3.3     1.9    2072     4.2     179    0.13    0.18    4.11    1.66     0.1     0.1     0.1     0.1     0.2     0.3     0.3     1.0     2.0     27.     44.     27.     20.     20.     19.      6.      6.      8.     0.0     0.0     0.0     0.0     0.0     0.0     0.0     0.1     0.0     0.1     0.1     0.1     0.1     0.2     0.3     0.2     0.9     2.0     0.2     0.3     0.2     0.2     0.2     0.2     0.1     0.3     0.0
 2020 289   135    0.06    0.23    0.37     587    0.36    46.7   0.016   0.047   0.341   0.390     0.3     3.2     1.9    1982     4.2     175    0.12    0.17    4.07    1.63     0.1     0.1     0.1     0.1     0.2     0.3     0.3     1.0     2.0     27.     43.     27.     20.     20.     19.      6.      6.      8.     0.0     0.0     0.0     0.0     0.0     0.0     0.0     0.1     0.0     0.1     0.1     0.1     0.1     0.2     0.3     0.2     0.9     2.0     0.2     0.3     0.2     0.1     0.2     0.2     0.1     0.3     0.0
 2020 290   136    0.06    0.23    0.37     589    0.36    46.9   0.016   0.047   0.344   0.391     0.3     3.2     1.8    1771     3.8     144    0.11    0.14    3.71    1.38     0.1     0.1     0.1     0.1     0.1     0.3     0.2     0.9     1.8     21.     35.     22.     17.     17.     16.      5.      6.      7.     0.0     0.0     0.0     0.0     0.0     0.0     0.0     0.1     0.0     0.1     0.1     0.1     0.1     0.1     0.3     0.2     0.9     1.8     0.2     0.3     0.2     0.1     0.1     0.2     0.1     0.3     0.0

*DSSAT Cropping System Model Ver. 4.7.5.035 -develop  JUN 02, 2021 09:26:05

*RUN   2        : 20 RAINFED BRAGG          CRGRO047 UFGA7801    2
 MODEL          : CRGRO047 - Soybean
 EXPERIMENT     : UFGA7801 SB BRAGG, IRRIGATED & NON-IRRIGATED
 DATA PATH      :
 TREATMENT  2   : 20 RAINFED BRAGG          CRGRO047
  
!              |---------------------------------- Cumulative ---------------------------------|---------------------------------- Daily --------------------------------------|
!               N2Oemit  N2emit  NOemit     CO2   Denit  Nitrif   N2O-denit+nit      N2      NO N2Oemit  N2emit  NOemit     CO2   Denit  Nitrif   N2O-denit+nit      N2      NO   Denitrification (g[N]/ha) by soil depth (cm):                           Nitrification (g[N]/ha) by soil depth (cm):                             N2O flux (g[N]/ha) by soil depth (cm):                                  N2 flux (g[N]/ha) by soil depth (cm):                                   NO flux (g[N]/ha) by soil depth (cm):
!                 kg/ha   kg/ha   kg/ha   kg/ha   kg/ha   kg/ha   kg/ha   kg/ha   kg/ha   kg/ha    g/ha    g/ha    g/ha    g/ha    g/ha    g/ha    g/ha    g/ha    g/ha    g/ha     0-5    5-15   15-30   30-45   45-60   60-90  90-120 120-150 150-180     0-5    5-15   15-30   30-45   45-60   60-90  90-120 120-150 150-180     0-5    5-15   15-30   30-45   45-60   60-90  90-120 120-150 150-180     0-5    5-15   15-30   30-45   45-60   60-90  90-120 120-150 150-180     0-5    5-15   15-30   30-45   45-60   60-90  90-120 120-150 150-180
@YEAR DOY   DAS   N2OEC    N2EC    NOEC   CO2TC    NDNC    NITC   N2ODC   N2ONC   N2FLC   NOFLC   N2OED    N2ED    NOED   CO2TD    NDND   NITRD   N2ODD   N2OND   N2FLD   NOFLD   NDN1D   NDN2D   NDN3D   NDN4D   NDN5D   NDN6D   NDN7D   NDN8D   NDN9D   NIT1D   NIT2D   NIT3D   NIT4D   NIT5D   NIT6D   NIT7D   NIT8D   NIT9D   N2O1D   N2O2D   N2O3D   N2O4D   N2O5D   N2O6D   N2O7D   N2O8D   N2O9D   N2F1D   N2F2D   N2F3D   N2F4D   N2F5D   N2F6D   N2F7D   N2F8D   N2F9D   NOF1D   NOF2D   NOF3D   NOF4D   NOF5D   NOF6D   NOF7D   NOF8D   NOF9D   
 2020 155     1    0.00    0.00    0.00       4    0.00     7.4   0.000   0.008   0.000   0.042     0.1     0.0     0.7    4335     0.0    7394    0.00    7.39    0.00   40.65     0.0     0.0     0.0     0.0     0.0     0.0     0.0     0.0     0.0    181.    390.    714.    714.    677.   1208.   1129.   1161.   1219.     0.2     0.4     0.7     0.7     0.7     1.2     1.1     1.2     1.2     0.0     0.0     0.0     0.0     0.0     0.0     0.0     0.0     0.0     1.3     2.8     5.0     5.0     4.7     8.7     7.9     4.9     0.4
 2020 156     2    0.00    0.00    0.00       8    0.00    11.5   0.000   0.012   0.000   0.069     0.2     0.0     1.5    4079     0.0    4064    0.00    4.06    0.00   27.15     0.0     0.0     0.0     0.0     0.0     0.0     0.0     0.0     0.0    112.    228.    338.    333.    338.    641.    644.    678.    753.     0.1     0.2     0.3     0.3     0.3     0.6     0.6     0.7     0.8     0.0     0.0     0.0     0.0     0.0     0.0     0.0     0.0     0.0     1.0     2.1     2.9     2.9     2.9     5.8     5.6     3.6     0.3
 2020 157     3    0.00    0.00    0.00      12    0.00    13.8   0.000   0.014   0.000   0.081     0.3     0.0     2.0    3859     0.0    2324    0.00    2.32    0.00   12.11     0.0     0.0     0.0     0.0     0.0     0.0     0.0     0.0     0.0     75.    145.    172.    165.    177.    348.    372.    400.    469.     0.1     0.1     0.2     0.2     0.2     0.3     0.4     0.4     0.5     0.0     0.0     0.0     0.0     0.0     0.0     0.0     0.0     0.0     0.6     1.0     1.2     1.1     1.2     2.5     2.6     1.7     0.1
 2020 158     4    0.00    0.00    0.01      16    0.00    15.2   0.000   0.015   0.000   0.089     0.3     0.0     2.5    3684     0.0    1435    0.00    1.43    0.00    7.40     0.0     0.0     0.0     0.0     0.0     0.0     0.0     0.0     0.0     57.    106.    103.     94.    104.    201.    222.    246.    302.     0.1     0.1     0.1     0.1     0.1     0.2     0.2     0.2     0.3     0.0     0.0     0.0     0.0     0.0     0.0     0.0     0.0     0.0     0.4     0.8     0.7     0.7     0.7     1.4     1.6     1.0     0.1
 2020 159     5    0.00    0.00    0.01      19    0.00    16.1   0.000   0.016   0.000   0.093     0.4     0.0     2.9    3472     0.0     909    0.00    0.91    0.00    4.71     0.0     0.0     0.0     0.0     0.0     0.0     0.0     0.0     0.0     43.     82.     68.     58.     65.    119.    133.    149.    192.     0.0     0.1     0.1     0.1     0.1     0.1     0.1     0.1     0.2     0.0     0.0     0.0     0.0     0.0     0.0     0.0     0.0     0.0     0.3     0.6     0.5     0.4     0.4     0.9     0.9     0.6     0.1
[...]
 2020 254   100    0.04    0.02    0.26     497    0.03    39.2   0.002   0.039   0.032   0.284     0.1     0.1     0.7    2096     6.9     149    0.52    0.15    6.38    3.18     0.0     0.0     0.0     5.8     0.0     1.1     0.0     0.0     0.0     25.     36.     22.     16.     17.     15.      6.      6.      7.     0.0     0.0     0.0     0.5     0.0     0.1     0.0     0.0     0.0     0.0     0.0     0.0     5.4     0.0     1.0     0.0     0.0     0.0     0.0     0.1     0.0     2.3     0.1     0.6     0.0     0.0     0.0
 2020 255   101    0.04    0.02    0.27     499    0.04    39.3   0.003   0.039   0.039   0.287     0.2     0.1     1.0    1681     7.8     127    0.56    0.13    7.29    3.18     0.0     0.0     0.0     5.8     0.0     2.1     0.0     0.0     0.0     25.     33.     17.     12.     13.     12.      5.      5.      6.     0.0     0.0     0.0     0.4     0.0     0.2     0.0     0.0     0.0     0.0     0.0     0.0     5.4     0.0     1.9     0.0     0.0     0.0     0.1     0.1     0.1     1.7     0.1     1.0     0.0     0.0     0.0
 2020 256   102    0.04    0.02    0.27     500    0.05    39.4   0.003   0.040   0.042   0.289     0.2     0.2     1.3    1430     2.9     107    0.18    0.11    2.77    1.74     0.0     0.0     0.0     2.1     0.0     0.8     0.0     0.0     0.0     20.     27.     14.     10.     11.     11.      4.      4.      5.     0.0     0.0     0.0     0.1     0.0     0.1     0.0     0.0     0.0     0.0     0.0     0.0     2.0     0.0     0.8     0.0     0.0     0.0     0.1     0.2     0.1     0.8     0.1     0.4     0.0     0.0     0.0
 2020 257   103    0.04    0.02    0.27     501    0.05    39.5   0.003   0.040   0.046   0.291     0.3     0.5     1.5    1341     3.8     101    0.18    0.10    3.61    1.83     0.2     0.6     0.9     0.9     0.7     0.4     0.0     0.0     0.0     18.     25.     13.     10.     11.     10.      4.      4.      5.     0.0     0.0     0.1     0.1     0.1     0.0     0.0     0.0     0.0     0.2     0.6     0.9     0.8     0.7     0.4     0.0     0.0     0.0     0.2     0.3     0.3     0.4     0.4     0.2     0.0     0.0     0.0
 2020 258   104    0.04    0.03    0.27     503    0.05    39.6   0.003   0.040   0.048   0.292     0.3     0.8     1.6    1604     2.7     121    0.13    0.12    2.59    1.69     0.1     0.3     0.5     0.5     0.4     0.4     0.5     0.0     0.0     22.     31.     16.     12.     13.     12.      5.      5.      6.     0.0     0.0     0.0     0.0     0.0     0.0     0.0     0.0     0.0     0.1     0.3     0.5     0.4     0.4     0.4     0.5     0.0     0.0     0.2     0.3     0.2     0.2     0.2     0.3     0.2     0.0     0.0
 2020 259   105    0.04    0.03    0.27     505    0.05    39.8   0.004   0.040   0.051   0.294     0.3     1.1     1.7    2057     3.0     163    0.17    0.16    2.85    2.07     0.1     0.2     0.3     0.3     0.2     0.5     0.6     0.9     0.0     31.     43.     22.     16.     17.     16.      6.      6.      7.     0.0     0.0     0.0     0.0     0.0     0.0     0.0     0.1     0.0     0.1     0.2     0.3     0.3     0.2     0.5     0.6     0.8     0.0     0.2     0.3     0.2     0.2     0.2     0.3     0.3     0.3     0.0
 2020 260   106    0.04    0.03    0.27     507    0.06    40.0   0.004   0.040   0.054   0.297     0.3     1.3     1.8    2400     3.3     200    0.19    0.20    3.13    2.44     0.0     0.2     0.3     0.3     0.2     0.5     0.7     1.0     0.0     38.     54.     27.     20.     21.     19.      7.      7.      8.     0.0     0.1     0.0     0.0     0.0     0.0     0.0     0.1     0.0     0.0     0.2     0.3     0.3     0.2     0.5     0.6     0.9     0.0     0.3     0.4     0.3     0.2     0.2     0.3     0.3     0.3     0.0
 2020 261   107    0.04    0.03    0.28     510    0.06    40.2   0.004   0.040   0.057   0.299     0.3     1.5     1.9    2492     3.5     212    0.20    0.21    3.26    2.56     0.1     0.2     0.3     0.3     0.3     0.6     0.7     1.0     0.0     41.     57.     29.     21.     22.     20.      7.      7.      8.     0.0     0.1     0.0     0.0     0.0     0.1     0.0     0.1     0.0     0.1     0.2     0.3     0.3     0.2     0.5     0.7     0.9     0.0     0.3     0.5     0.3     0.3     0.2     0.4     0.3     0.3     0.0
 2020 262   108    0.04    0.03    0.28     512    0.06    40.4   0.004   0.041   0.061   0.302     0.3     1.7     1.9    2401     3.4     204    0.20    0.20    3.24    2.51     0.1     0.2     0.3     0.3     0.3     0.5     0.7     1.0     0.0     39.     55.     28.     21.     21.     19.      6.      7.      8.     0.0     0.1     0.0     0.0     0.0     0.1     0.0     0.1     0.0     0.1     0.2     0.3     0.3     0.2     0.5     0.7     0.9     0.0     0.3     0.5     0.3     0.2     0.2     0.4     0.3     0.3     0.0
 2020 263   109    0.04    0.03    0.28     515    0.07    40.6   0.004   0.041   0.064   0.304     0.3     1.8     2.0    2346     3.4     198    0.19    0.20    3.21    2.46     0.1     0.3     0.3     0.3     0.3     0.5     0.7     1.0     0.0     37.     53.     27.     20.     20.     19.      6.      7.      8.     0.0     0.1     0.0     0.0     0.0     0.0     0.0     0.1     0.0     0.1     0.2     0.3     0.3     0.2     0.5     0.6     0.9     0.0     0.3     0.4     0.3     0.2     0.2     0.4     0.3     0.3     0.0
 2020 264   110    0.04    0.03    0.28     517    0.07    40.8   0.005   0.041   0.067   0.307     0.3     1.9     2.0    2405     3.4     198    0.20    0.20    3.24    2.47     0.1     0.3     0.3     0.3     0.3     0.5     0.7     1.0     0.0     37.     53.     28.     20.     21.     19.      6.      7.      8.     0.0     0.1     0.0     0.0     0.0     0.0     0.0     0.1     0.0     0.1     0.3     0.3     0.3     0.2     0.5     0.6     0.9     0.0     0.3     0.4     0.3     0.2     0.2     0.4     0.3     0.3     0.0
 2020 265   111    0.04    0.04    0.28     520    0.08    41.0   0.005   0.041   0.070   0.309     0.3     2.0     2.0    2405     3.5     204    0.20    0.20    3.31    2.53     0.1     0.3     0.3     0.3     0.3     0.6     0.7     1.0     0.0     38.     55.     29.     21.     21.     19.      6.      7.      8.     0.0     0.1     0.0     0.0     0.0     0.1     0.0     0.1     0.0     0.1     0.3     0.3     0.3     0.2     0.5     0.7     0.9     0.0     0.3     0.5     0.3     0.3     0.2     0.4     0.3     0.3     0.0
 2020 266   112    0.04    0.04    0.29     522    0.08    41.2   0.005   0.041   0.074   0.312     0.3     2.0     2.1    2460     3.6     207    0.20    0.21    3.36    2.58     0.1     0.3     0.3     0.3     0.3     0.6     0.7     1.0     0.0     39.     55.     29.     22.     21.     20.      6.      7.      8.     0.0     0.1     0.0     0.0     0.0     0.1     0.0     0.1     0.0     0.1     0.3     0.3     0.3     0.3     0.5     0.7     1.0     0.0     0.3     0.5     0.3     0.3     0.2     0.4     0.3     0.3     0.0
 2020 267   113    0.04    0.04    0.29     524    0.08    41.4   0.005   0.042   0.077   0.314     0.3     2.1     2.1    2449     3.6     211    0.21    0.21    3.42    2.63     0.1     0.3     0.3     0.3     0.3     0.6     0.7     1.0     0.0     39.     56.     30.     22.     22.     20.      7.      7.      8.     0.0     0.1     0.0     0.0     0.0     0.1     0.0     0.1     0.0     0.1     0.3     0.3     0.3     0.3     0.5     0.7     1.0     0.0     0.3     0.5     0.3     0.3     0.3     0.4     0.3     0.3     0.0
 2020 268   114    0.04    0.04    0.29     527    0.09    41.6   0.005   0.042   0.081   0.317     0.3     2.1     2.1    2437     3.7     214    0.21    0.21    3.48    2.67     0.1     0.3     0.4     0.3     0.3     0.6     0.7     1.1     0.0     40.     57.     30.     22.     23.     20.      7.      7.      8.     0.0     0.1     0.0     0.0     0.0     0.1     0.0     0.1     0.0     0.1     0.3     0.3     0.3     0.3     0.5     0.7     1.0     0.0     0.3     0.5     0.3     0.3     0.3     0.4     0.3     0.3     0.0
 2020 269   115    0.04    0.04    0.29     530    0.09    41.9   0.006   0.042   0.084   0.320     0.3     2.2     2.1    2692     3.9     228    0.22    0.23    3.64    2.82     0.1     0.3     0.4     0.3     0.3     0.6     0.7     1.1     0.0     42.     61.     32.     24.     24.     21.      7.      7.      9.     0.0     0.1     0.0     0.0     0.0     0.1     0.0     0.1     0.0     0.1     0.3     0.4     0.3     0.3     0.6     0.7     1.0     0.0     0.3     0.5     0.3     0.3     0.3     0.4     0.3     0.3     0.0
 2020 270   116    0.04    0.05    0.29     532    0.09    42.1   0.006   0.042   0.088   0.323     0.3     2.2     2.2    2622     4.0     241    0.23    0.24    3.79    2.97     0.1     0.4     0.4     0.4     0.3     0.6     0.8     1.1     0.0     45.     65.     35.     26.     25.     23.      8.      8.      9.     0.0     0.1     0.1     0.0     0.0     0.1     0.1     0.1     0.0     0.1     0.3     0.4     0.3     0.3     0.6     0.7     1.0     0.0     0.4     0.6     0.3     0.3     0.3     0.4     0.3     0.4     0.0
 2020 271   117    0.04    0.05    0.30     535    0.10    42.3   0.006   0.042   0.092   0.326     0.3     2.2     2.2    2812     4.2     247    0.24    0.25    3.92    3.06     0.1     0.4     0.4     0.4     0.3     0.6     0.8     1.2     0.0     46.     67.     35.     26.     26.     23.      8.      8.      9.     0.0     0.1     0.1     0.0     0.0     0.1     0.1     0.1     0.0     0.1     0.4     0.4     0.4     0.3     0.6     0.7     1.1     0.0     0.4     0.6     0.4     0.3     0.3     0.4     0.4     0.4     0.0
 2020 272   118    0.04    0.05    0.30     538    0.10    42.6   0.006   0.043   0.096   0.329     0.3     2.3     2.2    2642     4.0     227    0.23    0.23    3.79    2.88     0.1     0.4     0.4     0.4     0.3     0.6     0.8     1.1     0.0     41.     60.     33.     24.     24.     22.      7.      7.      9.     0.0     0.1     0.0     0.0     0.0     0.1     0.0     0.1     0.0     0.1     0.4     0.4     0.3     0.3     0.6     0.7     1.0     0.0     0.3     0.5     0.3     0.3     0.3     0.4     0.3     0.4     0.0
 2020 273   119    0.04    0.05    0.30     540    0.11    42.8   0.007   0.043   0.099   0.331     0.4     2.4     2.3    2419     3.8     202    0.22    0.20    3.58    2.63     0.1     0.3     0.4     0.3     0.3     0.6     0.7     1.1     0.0     36.     53.     29.     21.     22.     20.      6.      7.      8.     0.0     0.1     0.0     0.0     0.0     0.1     0.0     0.1     0.0     0.1     0.3     0.3     0.3     0.3     0.5     0.7     1.0     0.0     0.3     0.5     0.3     0.3     0.3     0.4     0.3     0.3     0.0
 2020 274   120    0.04    0.06    0.30     542    0.11    43.0   0.007   0.043   0.103   0.334     0.4     2.4     2.3    2248     3.6     187    0.21    0.19    3.43    2.48     0.1     0.3     0.3     0.3     0.3     0.5     0.7     1.0     0.0     33.     49.     27.     20.     20.     18.      6.      6.      8.     0.0     0.1     0.0     0.0     0.0     0.0     0.0     0.1     0.0     0.1     0.3     0.3     0.3     0.3     0.5     0.7     1.0     0.0     0.3     0.4     0.3     0.3     0.2     0.3     0.3     0.3     0.0
 2020 275   121    0.04    0.06    0.31     544    0.11    43.1   0.007   0.043   0.106   0.336     0.3     2.5     2.3    2152     3.4     166    0.20    0.17    3.21    2.26     0.1     0.3     0.3     0.3     0.2     0.5     0.7     1.0     0.0     29.     43.     24.     18.     18.     17.      6.      6.      7.     0.0     0.1     0.0     0.0     0.0     0.0     0.0     0.1     0.0     0.1     0.3     0.3     0.3     0.2     0.5     0.6     0.9     0.0     0.2     0.4     0.3     0.2     0.2     0.3     0.3     0.3     0.0
 2020 276   122    0.05    0.06    0.31     546    0.12    43.3   0.007   0.043   0.109   0.338     0.3     2.5     2.2    1830     3.1     144    0.18    0.14    2.94    2.00     0.1     0.3     0.3     0.3     0.2     0.5     0.6     0.9     0.0     24.     36.     21.     16.     16.     15.      5.      5.      6.     0.0     0.0     0.0     0.0     0.0     0.0     0.0     0.1     0.0     0.1     0.3     0.3     0.3     0.2     0.4     0.6     0.8     0.0     0.2     0.3     0.2     0.2     0.2     0.3     0.3     0.3     0.0
 2020 277   123    0.05    0.06    0.31     548    0.12    43.4   0.007   0.044   0.112   0.340     0.3     2.6     2.2    1882     3.0     149    0.18    0.15    2.83    2.01     0.1     0.1     0.3     0.3     0.2     0.5     0.6     0.9     0.0     25.     38.     21.     16.     16.     16.      5.      6.      7.     0.0     0.0     0.0     0.0     0.0     0.0     0.0     0.1     0.0     0.1     0.1     0.3     0.3     0.2     0.4     0.6     0.8     0.0     0.2     0.3     0.2     0.2     0.2     0.3     0.3     0.3     0.0
 2020 278   124    0.05    0.07    0.31     550    0.12    43.6   0.008   0.044   0.115   0.342     0.3     2.6     2.2    1897     3.0     154    0.18    0.15    2.85    2.05     0.1     0.1     0.3     0.3     0.2     0.5     0.6     0.9     0.0     25.     39.     22.     17.     17.     16.      5.      6.      7.     0.0     0.0     0.0     0.0     0.0     0.0     0.0     0.1     0.0     0.1     0.1     0.3     0.3     0.2     0.4     0.6     0.9     0.0     0.2     0.3     0.2     0.2     0.2     0.3     0.3     0.3     0.0
 2020 279   125    0.05    0.07    0.31     552    0.13    43.7   0.008   0.044   0.117   0.344     0.3     2.6     2.2    1822     3.0     152    0.17    0.15    2.82    2.02     0.1     0.1     0.3     0.3     0.2     0.5     0.6     0.9     0.0     25.     38.     22.     17.     17.     16.      5.      6.      7.     0.0     0.0     0.0     0.0     0.0     0.0     0.0     0.1     0.0     0.1     0.1     0.3     0.3     0.2     0.4     0.6     0.8     0.0     0.2     0.3     0.2     0.2     0.2     0.3     0.3     0.3     0.0
 2020 280   126    0.05    0.07    0.32     554    0.13    43.9   0.008   0.044   0.120   0.346     0.3     2.7     2.2    1871     3.0     159    0.18    0.16    2.87    2.08     0.1     0.1     0.3     0.3     0.2     0.5     0.6     0.9     0.0     26.     40.     23.     17.     18.     16.      5.      6.      7.     0.0     0.0     0.0     0.0     0.0     0.0     0.0     0.1     0.0     0.1     0.1     0.3     0.3     0.2     0.4     0.6     0.9     0.0     0.2     0.3     0.2     0.2     0.2     0.3     0.3     0.3     0.0
 2020 281   127    0.05    0.07    0.32     556    0.13    44.1   0.008   0.044   0.123   0.349     0.3     2.7     2.2    2045     3.2     177    0.19    0.18    3.03    2.26     0.1     0.2     0.3     0.3     0.2     0.5     0.6     1.0     0.0     29.     45.     26.     19.     19.     18.      6.      6.      7.     0.0     0.1     0.0     0.0     0.0     0.0     0.0     0.1     0.0     0.1     0.1     0.3     0.3     0.2     0.5     0.6     0.9     0.0     0.2     0.4     0.3     0.2     0.2     0.3     0.3     0.3     0.0
 2020 282   128    0.05    0.08    0.32     558    0.13    44.3   0.008   0.044   0.127   0.351     0.3     2.7     2.2    2227     3.3     190    0.19    0.19    3.15    2.39     0.1     0.2     0.3     0.3     0.3     0.5     0.7     1.0     0.0     32.     48.     28.     21.     21.     19.      6.      7.      8.     0.0     0.1     0.0     0.0     0.0     0.0     0.0     0.1     0.0     0.1     0.2     0.3     0.3     0.2     0.5     0.6     0.9     0.0     0.3     0.4     0.3     0.3     0.2     0.3     0.3     0.3     0.0
 2020 283   129    0.05    0.08    0.32     560    0.14    44.5   0.008   0.045   0.130   0.354     0.4     2.8     2.2    2334     3.6     216    0.21    0.22    3.39    2.66     0.1     0.2     0.4     0.3     0.3     0.5     0.7     1.1     0.0     37.     55.     32.     24.     24.     21.      7.      7.      9.     0.0     0.1     0.0     0.0     0.0     0.1     0.0     0.1     0.0     0.1     0.2     0.3     0.3     0.3     0.5     0.7     1.0     0.0     0.3     0.5     0.3     0.3     0.3     0.4     0.3     0.3     0.0
 2020 284   130    0.05    0.08    0.33     563    0.14    44.7   0.009   0.045   0.133   0.356     0.4     2.8     2.3    2400     3.7     228    0.22    0.23    3.53    2.79     0.1     0.2     0.4     0.4     0.3     0.6     0.7     1.1     0.0     39.     59.     34.     25.     25.     23.      7.      8.      9.     0.0     0.1     0.0     0.0     0.0     0.1     0.0     0.1     0.0     0.1     0.2     0.4     0.3     0.3     0.5     0.7     1.0     0.0     0.3     0.5     0.3     0.3     0.3     0.4     0.3     0.4     0.0
 2020 285   131    0.05    0.09    0.33     565    0.15    44.9   0.009   0.045   0.137   0.359     0.4     2.8     2.3    2523     3.8     224    0.22    0.22    3.55    2.77     0.1     0.2     0.4     0.4     0.3     0.6     0.7     1.1     0.0     38.     58.     33.     24.     24.     22.      7.      7.      9.     0.0     0.1     0.0     0.0     0.0     0.1     0.0     0.1     0.0     0.1     0.2     0.4     0.3     0.3     0.5     0.7     1.0     0.0     0.3     0.5     0.3     0.3     0.3     0.4     0.3     0.4     0.0
 2020 286   132    0.05    0.09    0.33     568    0.15    45.2   0.009   0.045   0.141   0.362     0.4     2.9     2.3    2614     3.9     232    0.22    0.23    3.65    2.86     0.1     0.2     0.4     0.4     0.3     0.6     0.8     1.1     0.0     40.     60.     35.     26.     25.     23.      7.      8.      9.     0.0     0.1     0.1     0.0     0.0     0.1     0.0     0.1     0.0     0.1     0.2     0.4     0.4     0.3     0.6     0.7     1.0     0.0     0.3     0.5     0.3     0.3     0.3     0.4     0.3     0.4     0.0
 2020 287   133    0.05    0.09    0.33     570    0.15    45.4   0.009   0.046   0.144   0.365     0.4     2.9     2.4    2356     3.7     207    0.21    0.21    3.49    2.64     0.1     0.2     0.4     0.4     0.3     0.6     0.7     1.1     0.0     35.     53.     31.     23.     23.     21.      7.      7.      8.     0.0     0.1     0.0     0.0     0.0     0.1     0.0     0.1     0.0     0.1     0.2     0.4     0.3     0.3     0.5     0.7     1.0     0.0     0.3     0.4     0.3     0.3     0.3     0.4     0.3     0.3     0.0
 2020 288   134    0.05    0.09    0.33     572    0.16    45.5   0.010   0.046   0.147   0.367     0.4     3.0     2.4    2140     3.5     184    0.20    0.18    3.28    2.41     0.1     0.2     0.3     0.3     0.3     0.5     0.7     1.0     0.0     30.     46.     27.     21.     20.     19.      6.      6.      8.     0.0     0.1     0.0     0.0     0.0     0.0     0.0     0.1     0.0     0.1     0.2     0.3     0.3     0.3     0.5     0.6     1.0     0.0     0.3     0.4     0.3     0.3     0.2     0.3     0.3     0.3     0.0
 2020 289   135    0.05    0.10    0.34     575    0.16    45.7   0.010   0.046   0.151   0.369     0.4     3.0     2.4    2132     3.4     180    0.20    0.18    3.23    2.35     0.1     0.2     0.3     0.3     0.3     0.5     0.7     1.0     0.0     29.     45.     27.     20.     20.     18.      6.      6.      8.     0.0     0.1     0.0     0.0     0.0     0.0     0.0     0.1     0.0     0.1     0.2     0.3     0.3     0.2     0.5     0.6     0.9     0.0     0.3     0.4     0.3     0.3     0.2     0.3     0.3     0.3     0.0
 2020 290   136    0.05    0.10    0.34     576    0.16    45.9   0.010   0.046   0.154   0.372     0.4     3.0     2.4    1796     3.1     148    0.18    0.15    2.90    2.02     0.1     0.2     0.3     0.3     0.2     0.5     0.6     0.9     0.0     23.     36.     22.     16.     17.     16.      5.      6.      7.     0.0     0.0     0.0     0.0     0.0     0.0     0.0     0.1     0.0     0.1     0.2     0.3     0.3     0.2     0.4     0.6     0.9     0.0     0.2     0.3     0.2     0.2     0.2     0.3     0.3     0.3     0.0
