*SIMULATION OVERVIEW FILE

*DSSAT Cropping System Model Ver. 4.7.5.035 -develop  MAY 07, 2021 11:55:39

*RUN   1        : 20 IRRIG, light rate,freq CRGRO047 UFGA7801    1
 MODEL          : CRGRO047 - Soybean
 EXPERIMENT     : UFGA7801 SB BRAGG, IRRIGATED & NON-IRRIGATED
 DATA PATH      :
 TREATMENT  1   : 20 IRRIG, light rate,freq CRGRO047


 CROP           : Soybean          CULTIVAR : BRAGG            ECOTYPE :SB0701
 STARTING DATE  : JUN  3 2020
 PLANTING DATE  : JUN  3 2020      PLANTS/m2 :    29.9    ROW SPACING :  91.cm
 WEATHER        : RT01   2020
 SOIL           : IBSB910015     TEXTURE : -99   - Millhopper Fine Sand
 SOIL INITIAL C : DEPTH:180cm EXTR. H2O:158.4mm  NO3: 22.8kg/ha  NH4: 16.5kg/ha
 WATER BALANCE  : IRRIGATE ON REPORTED DATE(S)
 IRRIGATION     :      173 mm IN    17 APPLICATIONS
 NITROGEN BAL.  : SOIL-N, N-UPTAKE & DYNAMIC N-FIXATION SIMULATION
 N-FERTILIZER   :        0 kg/ha IN     0 APPLICATIONS
 RESIDUE/MANURE : INITIAL :     0 kg/ha ;    1000 kg/ha IN     1 APPLICATIONS
 ENVIRONM. OPT. : DAYL=    0.00  SRAD=    0.00  TMAX=    0.00  TMIN=    0.00
                  RAIN=    0.00  CO2 =    0.00  DEW =    0.00  WIND=    0.00
 SIMULATION OPT : WATER   :Y  NITROGEN:Y  N-FIX:Y  PHOSPH :N  PESTS  :N
                  PHOTO   :L  ET      :O  INFIL:S  HYDROL :R  SOM    :G
                  CO2 410ppm  NSWIT   :1  EVAP :S  SOIL   :2  STEMP  :D
 MANAGEMENT OPT : PLANTING:R  IRRIG   :R  FERT :R  RESIDUE:R  HARVEST:M
                  WEATHER :M  TILLAGE :Y

*SUMMARY OF SOIL AND GENETIC INPUT PARAMETERS

   SOIL LOWER UPPER   SAT  EXTR  INIT   ROOT   BULK     pH    NO3    NH4    ORG
  DEPTH LIMIT LIMIT    SW    SW    SW   DIST   DENS                          C
   cm   cm3/cm3    cm3/cm3    cm3/cm3         g/cm3         ugN/g  ugN/g     %
-------------------------------------------------------------------------------
  0-  5 0.023 0.086 0.230 0.063 0.086   1.00   1.36   5.30   1.50   0.60   0.90
  5- 15 0.023 0.086 0.230 0.063 0.086   1.00   1.40   5.40   1.50   0.60   0.69
 15- 30 0.023 0.086 0.230 0.063 0.086   0.50   1.46   5.70   1.50   0.60   0.28
 30- 45 0.023 0.086 0.230 0.063 0.086   0.29   1.46   5.80   1.50   0.60   0.20
 45- 60 0.023 0.086 0.230 0.063 0.086   0.29   1.47   5.80   1.50   0.60   0.20
 60- 90 0.021 0.076 0.230 0.055 0.076   0.38   1.43   5.90   0.60   0.60   0.09
 90-120 0.020 0.076 0.230 0.056 0.076   0.13   1.48   5.90   0.50   0.60   0.03
120-150 0.027 0.130 0.230 0.103 0.130   0.06   1.57   5.90   0.50   0.60   0.03
150-180 0.070 0.258 0.360 0.188 0.258   0.03   1.79   5.90   0.50   0.60   0.03

TOT-180   5.5  21.4  45.3  15.8  21.4  <--cm   -  kg/ha-->   22.8   16.5  38919
SOIL ALBEDO    : 0.18      EVAPORATION LIMIT : 5.00         MIN. FACTOR  : 1.00
RUNOFF CURVE # :66.00      DRAINAGE RATE     : 0.50         FERT. FACTOR : 0.92

 Soybean    CULTIVAR :IB0001-BRAGG              ECOTYPE :SB0701
 CSDVAR :12.33  PPSEN  : 0.32  EMG-FLW:19.50  FLW-FSD:15.20  FSD-PHM : 37.60
 WTPSD  :0.170  SDPDVR : 2.00  SDFDUR :24.00  PODDUR :10.00  XFRUIT  :  1.00
 THRESH : 78.0  SDPRO  :0.400  SDLIP   : 0.200


*SIMULATED CROP AND SOIL STATUS AT MAIN DEVELOPMENT STAGES

 RUN NO.     1     20 IRRIG, light rate,fre

        CROP GROWTH     BIOMASS         LEAF   CROP N     STRESS      STRESS                                           
   DATE  AGE STAGE        kg/ha    LAI   NUM  kg/ha  %   H2O  Nitr Phos1 Phos2  RSTG                                   
 ------  --- ----------   -----  -----  ----  ---  ---  ----  ----  ----  ----  ----                                   
  3 JUN    0 Start Sim        0   0.00   0.0    0  0.0  0.00  0.00  0.00  0.00     0
  3 JUN    0 Sowing           0   0.00   0.0    0  0.0  0.00  0.00  0.00  0.00     0
  9 JUN    6 Emergence       14   0.02   0.1    1  5.1  0.00  0.00  0.00  0.00     0
  9 JUN    6 End Juven.      14   0.02   0.1    1  5.1  0.00  0.00  0.00  0.00     0
 18 JUN   15 Unifoliate      14   0.02   0.9    1  5.1  0.94  0.00  0.00  0.00     0
 18 JUL   45 Flower Ind      14   0.02   1.2    1  5.2  0.97  0.00  0.00  0.00     0
  7 SEP   96 First Flwr      22   0.03   2.5    1  3.4  0.88  0.05  0.00  0.00     1
 26 SEP  115 End Msnode      55   0.04   5.5    1  1.8  0.00  0.51  0.00  0.00     1
 27 SEP  116 First Pod       58   0.04   5.5    1  1.8  0.00  0.36  0.00  0.00     3
  9 OCT  128 First Seed      78   0.04   5.5    2  2.1  0.00  0.01  0.00  0.00     5
 16 OCT  135 Harvest         88   0.05   5.5    2  2.3  0.00  0.00  0.00  0.00     5


*MAIN GROWTH AND DEVELOPMENT VARIABLES

@     VARIABLE                                         SIMULATED     MEASURED
      --------                                         ---------     --------
      Anthesis day (dap)                                      96          -99
      First pod day (dap)                                    116          -99
      First seed day (dap)                                   128          -99
      Physiological maturity day (dap)                       -99          -99
      Yield at harvest maturity (kg [dm]/ha)                   0          -99
      Pod/Ear/Panicle weight at maturity (kg [dm]/ha)          4          -99
      Number at maturity (no/m2)                               2          -99
      Unit wt at maturity (g [dm]/unit)                   0.0129          -99
      Number at maturity (no/unit)                          0.21          -99
      Tops weight at maturity (kg [dm]/ha)                    88          -99
      By-product produced (stalk) at maturity (kg[dm]/ha      90          -99
      Leaf area index, maximum                              0.05          -99
      Harvest index at maturity                            0.003          -99
      Threshing % at maturity                               6.77          -99
      Grain N at maturity (kg/ha)                              0          -99
      Tops N at maturity (kg/ha)                               2          -99
      Stem N at maturity (kg/ha)                               0          -99
      Grain N at maturity (%)                               6.64          -99
      Tops weight at anthesis (kg [dm]/ha)                    22          -99
      Tops N at anthesis (kg/ha)                               1          -99
      Leaf number per stem at maturity                      5.48          -99
      Grain oil at maturity (%)                            12.91          -99
      Canopy height (m)                                     0.23          -99
      Emergence day (dap)                                      6          -99


*ENVIRONMENTAL AND STRESS FACTORS

 |-----Development Phase------|--------------------------------------Environment--------------------------------------|-----------------Stress-----------------|
                              |---------------Average--------------|-----Cumulative-----|--------Count of days--------|          (0=Min, 1=Max Stress)         |
                         Time  Temp  Temp  Temp Solar Photop                Evapo    Pot TMIN TMIN TMAX TMAX TMAX RAIN|----Water----|---Nitrogen--|-Phosphorus-|
                         Span   Max   Min  Mean   Rad  [day]    CO2   Rain  Trans     ET   <    <    >    >    >    >   Photo         Photo         Photo
                         days    øC    øC    øC MJ/m2     hr    ppm     mm     mm     mm  0øC  2øC 30øC 32øC 34øC  0mm  synth Growth  synth Growth  synth Growth
----------------------------------------------------------------------------------------------------------------------------------------------------------------
 Emergence -First Flower   90  32.6  17.0  24.8  23.0  13.95  410.5  139.9  172.0  405.1    0    0   72   55   33   15  0.903  0.917  0.000  0.031  0.000  0.000
 First Flower-First Seed   32  26.7   7.4  17.1  16.7  11.84  410.5   30.8    0.0    0.0    0    2    7    6    3    3  0.000  0.000  0.000  0.317  0.000  0.000
 First Seed - Phys. Mat.    7  23.8   5.7  14.7  12.8  11.04  410.5    0.0    0.0    0.0    1    2    3    1    0    0  0.000  0.000  0.000  0.000  0.000  0.000
 Emergence  - Phys. Mat.  129  30.6  14.0  22.3  20.9  13.27  410.5  170.7  172.0  405.1    1    4   82   62   36   18  0.630  0.640  0.000  0.100  0.000  0.000
   
 Planting to Harvest      136  30.9  14.2  22.5  21.0  13.33  410.5  183.6  176.7  418.8    1    4   88   68   42   20  0.598  0.607  0.000  0.095  0.000  0.000
----------------------------------------------------------------------------------------------------------------------------------------------------------------


*Resource Productivity
 Growing season length: 136 days 

 Precipitation during growing season       183.6 mm[rain]
   Dry Matter Productivity                  0.05 kg[DM]/m3[rain]          =    0.5 kg[DM]/ha per mm[rain]
   Yield Productivity                       0.00 kg[grain yield]/m3[rain] =    0.0 kg[yield]/ha per mm[rain]

 Evapotranspiration during growing season  176.7 mm[ET]
   Dry Matter Productivity                  0.05 kg[DM]/m3[ET]            =    0.5 kg[DM]/ha per mm[ET]
   Yield Productivity                       0.00 kg[grain yield]/m3[ET]   =    0.0 kg[yield]/ha per mm[ET]

 Transpiration during growing season        15.3 mm[EP]
   Dry Matter Productivity                  0.57 kg[DM]/m3[EP]            =    5.7 kg[DM]/ha per mm[EP]
   Yield Productivity                       0.00 kg[grain yield]/m3[EP]   =    0.0 kg[yield]/ha per mm[EP]

 Irrigation during growing season          173.0 mm[irrig]
   Dry Matter Productivity                  0.05 kg[DM]/m3[irrig]         =    0.5 kg[DM]/ha per mm[irrig]
   Yield Productivity                       0.00 kg[grain yield]/m3[irrig]=    0.0 kg[yield]/ha per mm[irrig]

 N uptake during growing season                2 kg[N uptake]/ha
   Dry Matter Productivity                  43.8 kg[DM]/kg[N uptake]
   Yield Productivity                        0.0 kg[yield]/kg[N uptake]

--------------------------------------------------------------------------------------------------------------

                   Soybean YIELD :        0 kg/ha    [Dry weight] 

**************************************************************************************************************

*DSSAT Cropping System Model Ver. 4.7.5.035 -develop  MAY 07, 2021 11:55:39

*RUN   2        : 20 RAINFED BRAGG          CRGRO047 UFGA7801    2
 MODEL          : CRGRO047 - Soybean
 EXPERIMENT     : UFGA7801 SB BRAGG, IRRIGATED & NON-IRRIGATED
 DATA PATH      :
 TREATMENT  2   : 20 RAINFED BRAGG          CRGRO047


 CROP           : Soybean          CULTIVAR : BRAGG            ECOTYPE :SB0701
 STARTING DATE  : JUN  3 2020
 PLANTING DATE  : JUN  3 2020      PLANTS/m2 :    29.9    ROW SPACING :  91.cm
 WEATHER        : RT01   2020
 SOIL           : IBSB910015     TEXTURE : -99   - Millhopper Fine Sand
 SOIL INITIAL C : DEPTH:180cm EXTR. H2O:158.4mm  NO3: 22.8kg/ha  NH4: 16.5kg/ha
 WATER BALANCE  : IRRIGATE ON REPORTED DATE(S)
 IRRIGATION     :        0 mm IN     0 APPLICATIONS
 NITROGEN BAL.  : SOIL-N, N-UPTAKE & DYNAMIC N-FIXATION SIMULATION
 N-FERTILIZER   :        0 kg/ha IN     0 APPLICATIONS
 RESIDUE/MANURE : INITIAL :     0 kg/ha ;    1000 kg/ha IN     1 APPLICATIONS
 ENVIRONM. OPT. : DAYL=    0.00  SRAD=    0.00  TMAX=    0.00  TMIN=    0.00
                  RAIN=    0.00  CO2 =    0.00  DEW =    0.00  WIND=    0.00
 SIMULATION OPT : WATER   :Y  NITROGEN:Y  N-FIX:Y  PHOSPH :N  PESTS  :N
                  PHOTO   :L  ET      :O  INFIL:S  HYDROL :R  SOM    :G
                  CO2 410ppm  NSWIT   :1  EVAP :S  SOIL   :2  STEMP  :D
 MANAGEMENT OPT : PLANTING:R  IRRIG   :R  FERT :R  RESIDUE:R  HARVEST:M
                  WEATHER :M  TILLAGE :Y

*SUMMARY OF SOIL AND GENETIC INPUT PARAMETERS

   SOIL LOWER UPPER   SAT  EXTR  INIT   ROOT   BULK     pH    NO3    NH4    ORG
  DEPTH LIMIT LIMIT    SW    SW    SW   DIST   DENS                          C
   cm   cm3/cm3    cm3/cm3    cm3/cm3         g/cm3         ugN/g  ugN/g     %
-------------------------------------------------------------------------------
  0-  5 0.023 0.086 0.230 0.063 0.086   1.00   1.36   5.30   1.50   0.60   0.90
  5- 15 0.023 0.086 0.230 0.063 0.086   1.00   1.40   5.40   1.50   0.60   0.69
 15- 30 0.023 0.086 0.230 0.063 0.086   0.50   1.46   5.70   1.50   0.60   0.28
 30- 45 0.023 0.086 0.230 0.063 0.086   0.29   1.46   5.80   1.50   0.60   0.20
 45- 60 0.023 0.086 0.230 0.063 0.086   0.29   1.47   5.80   1.50   0.60   0.20
 60- 90 0.021 0.076 0.230 0.055 0.076   0.38   1.43   5.90   0.60   0.60   0.09
 90-120 0.020 0.076 0.230 0.056 0.076   0.13   1.48   5.90   0.50   0.60   0.03
120-150 0.027 0.130 0.230 0.103 0.130   0.06   1.57   5.90   0.50   0.60   0.03
150-180 0.070 0.258 0.360 0.188 0.258   0.03   1.79   5.90   0.50   0.60   0.03

TOT-180   5.5  21.4  45.3  15.8  21.4  <--cm   -  kg/ha-->   22.8   16.5  38919
SOIL ALBEDO    : 0.18      EVAPORATION LIMIT : 5.00         MIN. FACTOR  : 1.00
RUNOFF CURVE # :66.00      DRAINAGE RATE     : 0.50         FERT. FACTOR : 0.92

 Soybean    CULTIVAR :IB0001-BRAGG              ECOTYPE :SB0701
 CSDVAR :12.33  PPSEN  : 0.32  EMG-FLW:19.50  FLW-FSD:15.20  FSD-PHM : 37.60
 WTPSD  :0.170  SDPDVR : 2.00  SDFDUR :24.00  PODDUR :10.00  XFRUIT  :  1.00
 THRESH : 78.0  SDPRO  :0.400  SDLIP   : 0.200


*SIMULATED CROP AND SOIL STATUS AT MAIN DEVELOPMENT STAGES

 RUN NO.     2     20 RAINFED BRAGG        

        CROP GROWTH     BIOMASS         LEAF   CROP N     STRESS      STRESS                                           
   DATE  AGE STAGE        kg/ha    LAI   NUM  kg/ha  %   H2O  Nitr Phos1 Phos2  RSTG                                   
 ------  --- ----------   -----  -----  ----  ---  ---  ----  ----  ----  ----  ----                                   
  3 JUN    0 Start Sim        0   0.00   0.0    0  0.0  0.00  0.00  0.00  0.00     0
  3 JUN    0 Sowing           0   0.00   0.0    0  0.0  0.00  0.00  0.00  0.00     0
  9 JUN    6 Emergence       14   0.02   0.1    1  5.1  0.00  0.00  0.00  0.00     0
  9 JUN    6 End Juven.      14   0.02   0.1    1  5.1  0.00  0.00  0.00  0.00     0
 18 JUN   15 Unifoliate      14   0.02   0.9    1  5.1  0.95  0.00  0.00  0.00     0
 18 JUL   45 Flower Ind      14   0.02   1.0    1  5.2  0.98  0.00  0.00  0.00     0
  7 SEP   96 First Flwr      22   0.03   2.4    1  3.6  0.89  0.05  0.00  0.00     1
 26 SEP  115 End Msnode      78   0.08   5.3    2  2.5  0.00  0.26  0.00  0.00     1
 28 SEP  117 First Pod       85   0.08   5.3    2  2.6  0.00  0.00  0.00  0.00     3
  9 OCT  128 First Seed     126   0.09   5.3    4  3.2  0.00  0.00  0.00  0.00     5
 16 OCT  135 Harvest        149   0.09   5.3    5  3.2  0.00  0.00  0.00  0.00     5


*MAIN GROWTH AND DEVELOPMENT VARIABLES

@     VARIABLE                                         SIMULATED     MEASURED
      --------                                         ---------     --------
      Anthesis day (dap)                                      96          -99
      First pod day (dap)                                    117          -99
      First seed day (dap)                                   128          -99
      Physiological maturity day (dap)                       -99          -99
      Yield at harvest maturity (kg [dm]/ha)                   0          -99
      Pod/Ear/Panicle weight at maturity (kg [dm]/ha)          5          -99
      Number at maturity (no/m2)                               2          -99
      Unit wt at maturity (g [dm]/unit)                   0.0110          -99
      Number at maturity (no/unit)                          0.12          -99
      Tops weight at maturity (kg [dm]/ha)                   149          -99
      By-product produced (stalk) at maturity (kg[dm]/ha     150          -99
      Leaf area index, maximum                              0.09          -99
      Harvest index at maturity                            0.001          -99
      Threshing % at maturity                               3.87          -99
      Grain N at maturity (kg/ha)                              0          -99
      Tops N at maturity (kg/ha)                               5          -99
      Stem N at maturity (kg/ha)                               1          -99
      Grain N at maturity (%)                               6.56          -99
      Tops weight at anthesis (kg [dm]/ha)                    22          -99
      Tops N at anthesis (kg/ha)                               1          -99
      Leaf number per stem at maturity                      5.32          -99
      Grain oil at maturity (%)                            13.90          -99
      Canopy height (m)                                     0.22          -99
      Emergence day (dap)                                      6          -99


*ENVIRONMENTAL AND STRESS FACTORS

 |-----Development Phase------|--------------------------------------Environment--------------------------------------|-----------------Stress-----------------|
                              |---------------Average--------------|-----Cumulative-----|--------Count of days--------|          (0=Min, 1=Max Stress)         |
                         Time  Temp  Temp  Temp Solar Photop                Evapo    Pot TMIN TMIN TMAX TMAX TMAX RAIN|----Water----|---Nitrogen--|-Phosphorus-|
                         Span   Max   Min  Mean   Rad  [day]    CO2   Rain  Trans     ET   <    <    >    >    >    >   Photo         Photo         Photo
                         days    øC    øC    øC MJ/m2     hr    ppm     mm     mm     mm  0øC  2øC 30øC 32øC 34øC  0mm  synth Growth  synth Growth  synth Growth
----------------------------------------------------------------------------------------------------------------------------------------------------------------
 Emergence -First Flower   90  32.6  17.0  24.8  23.0  13.95  410.5  139.9  111.9  405.1    0    0   72   55   33   15  0.914  0.924  0.000  0.026  0.000  0.000
 First Flower-First Seed   32  26.7   7.4  17.1  16.7  11.84  410.5   30.8    0.0    0.0    0    2    7    6    3    3  0.000  0.000  0.000  0.153  0.000  0.000
 First Seed - Phys. Mat.    7  23.8   5.7  14.7  12.8  11.04  410.5    0.0    0.0    0.0    1    2    3    1    0    0  0.000  0.000  0.000  0.000  0.000  0.000
 Emergence  - Phys. Mat.  129  30.6  14.0  22.3  20.9  13.27  410.5  170.7  111.9  405.1    1    4   82   62   36   18  0.638  0.645  0.000  0.056  0.000  0.000
   
 Planting to Harvest      136  30.9  14.2  22.5  21.0  13.33  410.5  183.6  116.6  418.8    1    4   88   68   42   20  0.605  0.612  0.000  0.053  0.000  0.000
----------------------------------------------------------------------------------------------------------------------------------------------------------------


*Resource Productivity
 Growing season length: 136 days 

 Precipitation during growing season       183.6 mm[rain]
   Dry Matter Productivity                  0.08 kg[DM]/m3[rain]          =    0.8 kg[DM]/ha per mm[rain]
   Yield Productivity                       0.00 kg[grain yield]/m3[rain] =    0.0 kg[yield]/ha per mm[rain]

 Evapotranspiration during growing season  116.6 mm[ET]
   Dry Matter Productivity                  0.13 kg[DM]/m3[ET]            =    1.3 kg[DM]/ha per mm[ET]
   Yield Productivity                       0.00 kg[grain yield]/m3[ET]   =    0.0 kg[yield]/ha per mm[ET]

 Transpiration during growing season        10.9 mm[EP]
   Dry Matter Productivity                  1.36 kg[DM]/m3[EP]            =   13.6 kg[DM]/ha per mm[EP]
   Yield Productivity                       0.00 kg[grain yield]/m3[EP]   =    0.0 kg[yield]/ha per mm[EP]

 N uptake during growing season                5 kg[N uptake]/ha
   Dry Matter Productivity                  29.7 kg[DM]/kg[N uptake]
   Yield Productivity                        0.0 kg[yield]/kg[N uptake]

--------------------------------------------------------------------------------------------------------------

                   Soybean YIELD :        0 kg/ha    [Dry weight] 

**************************************************************************************************************
