*GROWTH ASPECTS OUTPUT FILE

*DSSAT Cropping System Model Ver. 4.7.5.035 -develop  MAY 07, 2021 11:55:39

*RUN   1        : 20 IRRIG, light rate,freq CRGRO047 UFGA7801    1
 MODEL          : CRGRO047 - Soybean
 EXPERIMENT     : UFGA7801 SB BRAGG, IRRIGATED & NON-IRRIGATED
 DATA PATH      :
 TREATMENT  1   : 20 IRRIG, light rate,freq CRGRO047
  
!                                                                                                                                                                                                                                                    Root Dens. (cm/cm3) by soil depth (cm):
!                                                                                                                                                                                                                                                    0-5    5-15   15-30   30-45   45-60   60-90  90-120 120-150 150-180
@YEAR DOY   DAS   DAP   L#SD   GSTD   LAID   LWAD   SWAD   GWAD   RWAD   VWAD   CWAD   G#AD    GWGD   HIAD   PWAD   P#AD   WSPD   WSGD   NSTD  PST1A  PST2A   KSTD   EWSD    LN%D   SH%D   HIPD   PWDD   PWTD   SLAD   CHTD   CWID   NWAD   RDPD    RL1D    RL2D    RL3D    RL4D    RL5D    RL6D    RL7D    RL8D    RL9D    SNW0C   SNW1C
 2020 155     1     0    0.0      0  0.000      0      0      0      0      0      0      0     0.0  0.000      0      0  0.000  0.000  0.000  0.000  0.000  0.000  0.000    0.00   0.00   0.00      0      0    0.0   0.00   0.00    0.0   0.00    0.00    0.00    0.00    0.00    0.00    0.00    0.00    0.00    0.00        0       0
 2020 156     2     1    0.0      0  0.000      0      0      0      0      0      0      0     0.0  0.000      0      0  0.000  0.000  0.000  0.000  0.000  0.000  0.000    0.00   0.00   0.00      0      0    0.0   0.00   0.00    0.0   0.00    0.00    0.00    0.00    0.00    0.00    0.00    0.00    0.00    0.00        0       0
 2020 157     3     2    0.0      0  0.000      0      0      0      0      0      0      0     0.0  0.000      0      0  0.000  0.000  0.000  0.000  0.000  0.000  0.000    0.00   0.00   0.00      0      0    0.0   0.00   0.00    0.0   0.00    0.00    0.00    0.00    0.00    0.00    0.00    0.00    0.00    0.00        0       0
 2020 158     4     3    0.0      0  0.000      0      0      0      0      0      0      0     0.0  0.000      0      0  0.000  0.000  0.000  0.000  0.000  0.000  0.000    0.00   0.00   0.00      0      0    0.0   0.00   0.00    0.0   0.00    0.00    0.00    0.00    0.00    0.00    0.00    0.00    0.00    0.00        0       0
 2020 159     5     4    0.0      0  0.000      0      0      0      0      0      0      0     0.0  0.000      0      0  0.000  0.000  0.000  0.000  0.000  0.000  0.000    0.00   0.00   0.00      0      0    0.0   0.00   0.00    0.0   0.00    0.00    0.00    0.00    0.00    0.00    0.00    0.00    0.00    0.00        0       0
 2020 160     6     5    0.0      0  0.000      0      0      0      0      0      0      0     0.0  0.000      0      0  0.000  0.000  0.000  0.000  0.000  0.000  0.000    0.00   0.00   0.00      0      0    0.0   0.00   0.00    0.0   0.00    0.00    0.00    0.00    0.00    0.00    0.00    0.00    0.00    0.00        0       0
 2020 161     7     6    0.1      0  0.021     11      3      0     14     14     14      0     0.0  0.000      0      0  0.000  0.000  0.000  0.000  0.000  0.000  0.000    5.70   0.00   0.00      0      0  182.8   0.03   0.03    3.9   0.21    0.05    0.05    0.02    0.00    0.00    0.00    0.00    0.00    0.00        0       0
 2020 162     8     7    0.1      0  0.021     11      3      0     14     14     14      0     0.0  0.000      0      0  0.839  0.893  0.000  0.000  0.000  0.000  0.000    5.70   0.00   0.00      0      0  182.7   0.03   0.03    3.6   0.23    0.05    0.05    0.02    0.00    0.00    0.00    0.00    0.00    0.00        0       1
 2020 163     9     8    0.2      0  0.021     11      3      0     14     14     14      0     0.0  0.000      0      0  0.896  0.931  0.000  0.000  0.000  0.000  0.000    5.71   0.00   0.00      0      0  182.8   0.03   0.03    3.4   0.25    0.05    0.05    0.02    0.00    0.00    0.00    0.00    0.00    0.00        0       1
 2020 164    10     9    0.4      0  0.021     11      3      0     14     14     14      0     0.0  0.000      0      0  0.900  0.933  0.000  0.000  0.000  0.000  0.000    5.71   0.00   0.00      0      0  182.8   0.03   0.03    3.1   0.27    0.05    0.05    0.02    0.00    0.00    0.00    0.00    0.00    0.00        0       2
 2020 165    11    10    0.5      0  0.021     11      3      0     13     14     14      0     0.0  0.000      0      0  0.926  0.951  0.000  0.000  0.000  0.000  0.000    5.71   0.00   0.00      0      0  182.9   0.03   0.03    2.9   0.29    0.05    0.05    0.02    0.00    0.00    0.00    0.00    0.00    0.00        0       2
 2020 166    12    11    0.6      0  0.021     11      3      0     13     14     14      0     0.0  0.000      0      0  0.943  0.962  0.000  0.000  0.000  0.000  0.000    5.72   0.00   0.00      0      0  183.0   0.03   0.03    2.7   0.32    0.05    0.05    0.02    0.00    0.00    0.00    0.00    0.00    0.00        0       3
 2020 167    13    12    0.7      0  0.021     11      2      0     13     14     14      0     0.0  0.000      0      0  0.951  0.967  0.000  0.000  0.000  0.000  0.000    5.72   0.00   0.00      0      0  183.2   0.03   0.03    2.5   0.34    0.05    0.05    0.02    0.00    0.00    0.00    0.00    0.00    0.00        0       3
 2020 168    14    13    0.8      0  0.021     11      2      0     13     14     14      0     0.0  0.000      0      0  0.937  0.958  0.000  0.000  0.000  0.000  0.000    5.73   0.00   0.00      0      0  183.3   0.03   0.03    2.4   0.37    0.05    0.05    0.02    0.00    0.00    0.00    0.00    0.00    0.00        0       3
 2020 169    15    14    0.9      0  0.021     11      2      0     13     14     14      0     0.0  0.000      0      0  0.941  0.961  0.000  0.000  0.000  0.000  0.000    5.73   0.00   0.00      0      0  183.4   0.03   0.03    2.2   0.39    0.05    0.05    0.02    0.00    0.00    0.00    0.00    0.00    0.00        0       4
 2020 170    16    15    0.9      0  0.021     11      2      0     12     14     14      0     0.0  0.000      0      0  0.919  0.946  0.000  0.000  0.000  0.000  0.000    5.73   0.00   0.00      0      0  183.5   0.03   0.03    2.0   0.42    0.05    0.05    0.02    0.00    0.00    0.00    0.00    0.00    0.00        0       4
 2020 171    17    16    1.0      0  0.021     11      2      0     13     14     14      0     0.0  0.000      0      0  0.823  0.882  0.000  0.000  0.000  0.000  0.000    5.74   0.00   0.00      0      0  183.3   0.03   0.03    1.9   0.43    0.05    0.05    0.02    0.00    0.00    0.00    0.00    0.00    0.00        0       4
 2020 172    18    17    1.0      0  0.021     11      2      0     13     14     14      0     0.0  0.000      0      0  0.898  0.932  0.000  0.000  0.000  0.000  0.000    5.74   0.00   0.00      0      0  183.3   0.03   0.03    1.8   0.46    0.05    0.05    0.02    0.00    0.00    0.00    0.00    0.00    0.00        0       5
 2020 173    19    18    1.0      0  0.021     11      2      0     13     14     14      0     0.0  0.000      0      0  0.894  0.929  0.000  0.000  0.000  0.000  0.000    5.74   0.00   0.00      0      0  183.3   0.03   0.03    1.6   0.48    0.05    0.05    0.02    0.00    0.00    0.00    0.00    0.00    0.00        0       5
 2020 174    20    19    1.0      0  0.021     11      2      0     13     14     14      0     0.0  0.000      0      0  0.891  0.928  0.000  0.000  0.000  0.000  0.000    5.75   0.00   0.00      0      0  183.3   0.03   0.03    1.5   0.50    0.05    0.05    0.02    0.00    0.00    0.00    0.00    0.00    0.00        0       5
 2020 175    21    20    1.0      0  0.021     11      2      0     13     14     14      0     0.0  0.000      0      0  0.887  0.925  0.000  0.000  0.000  0.000  0.000    5.75   0.00   0.00      0      0  183.2   0.03   0.03    1.4   0.52    0.05    0.05    0.02    0.00    0.00    0.00    0.00    0.00    0.00        0       6
 2020 176    22    21    1.0      0  0.021     11      2      0     12     14     14      0     0.0  0.000      0      0  0.942  0.962  0.000  0.000  0.000  0.000  0.000    5.75   0.00   0.00      0      0  183.3   0.03   0.03    1.3   0.54    0.05    0.05    0.02    0.00    0.00    0.00    0.00    0.00    0.00        0       6
 2020 177    23    22    1.0      0  0.021     11      2      0     12     14     14      0     0.0  0.000      0      0  0.958  0.972  0.000  0.000  0.000  0.000  0.000    5.76   0.00   0.00      0      0  183.4   0.03   0.03    1.2   0.57    0.04    0.04    0.02    0.00    0.00    0.00    0.00    0.00    0.00        0       6
 2020 178    24    23    1.0      0  0.021     11      2      0     12     14     14      0     0.0  0.000      0      0  0.949  0.966  0.000  0.000  0.000  0.000  0.000    5.76   0.00   0.00      0      0  183.5   0.03   0.03    1.2   0.59    0.04    0.04    0.02    0.00    0.00    0.00    0.00    0.00    0.00        0       7
 2020 179    25    24    1.1      0  0.021     11      2      0     12     14     14      0     0.0  0.000      0      0  0.955  0.970  0.000  0.000  0.000  0.000  0.000    5.76   0.00   0.00      0      0  183.6   0.03   0.03    1.1   0.61    0.04    0.04    0.01    0.00    0.00    0.00    0.00    0.00    0.00        0       7
 2020 180    26    25    1.1      0  0.021     11      2      0     12     14     14      0     0.0  0.000      0      0  0.962  0.975  0.000  0.000  0.000  0.000  0.000    5.77   0.00   0.00      0      0  183.7   0.03   0.03    1.0   0.61    0.04    0.04    0.01    0.00    0.00    0.00    0.00    0.00    0.00        0       7
 2020 181    27    26    1.1      0  0.021     11      2      0     11     14     14      0     0.0  0.000      0      0  0.974  0.982  0.000  0.000  0.000  0.000  0.000    5.77   0.00   0.00      0      0  183.8   0.03   0.03    0.9   0.61    0.04    0.04    0.01    0.00    0.00    0.00    0.00    0.00    0.00        0       7
 2020 182    28    27    1.1      0  0.021     11      2      0     11     14     14      0     0.0  0.000      0      0  0.959  0.973  0.000  0.000  0.000  0.000  0.000    5.77   0.00   0.00      0      0  183.9   0.03   0.03    0.9   0.64    0.04    0.04    0.01    0.00    0.00    0.00    0.00    0.00    0.00        0       8
 2020 183    29    28    1.1      0  0.021     11      2      0     11     14     14      0     0.0  0.000      0      0  0.953  0.968  0.000  0.000  0.000  0.000  0.000    5.78   0.00   0.00      0      0  184.0   0.03   0.03    0.8   0.66    0.04    0.04    0.01    0.00    0.00    0.00    0.00    0.00    0.00        0       8
 2020 184    30    29    1.1      0  0.021     11      2      0     11     14     14      0     0.0  0.000      0      0  0.958  0.972  0.000  0.000  0.000  0.000  0.000    5.78   0.00   0.00      0      0  184.1   0.03   0.03    0.7   0.68    0.04    0.04    0.01    0.00    0.00    0.00    0.00    0.00    0.00        0       8
 2020 185    31    30    1.1      0  0.021     11      2      0     11     14     14      0     0.0  0.000      0      0  0.955  0.970  0.000  0.000  0.000  0.000  0.000    5.78   0.00   0.00      0      0  184.2   0.03   0.03    0.7   0.71    0.04    0.04    0.01    0.00    0.00    0.00    0.00    0.00    0.00        0       8
 2020 186    32    31    1.1      0  0.021     11      2      0     11     14     14      0     0.0  0.000      0      0  0.955  0.970  0.000  0.000  0.000  0.000  0.000    5.78   0.00   0.00      0      0  184.3   0.03   0.03    0.6   0.73    0.04    0.04    0.01    0.00    0.00    0.00    0.00    0.00    0.00        0       9
 2020 187    33    32    1.1      0  0.021     11      2      0     11     14     14      0     0.0  0.000      0      0  0.934  0.956  0.000  0.000  0.000  0.000  0.000    5.79   0.00   0.00      0      0  184.3   0.03   0.03    0.6   0.75    0.04    0.04    0.01    0.00    0.00    0.00    0.00    0.00    0.00        0       9
 2020 188    34    33    1.1      0  0.021     11      2      0     10     14     14      0     0.0  0.000      0      0  0.957  0.972  0.000  0.000  0.000  0.000  0.000    5.79   0.00   0.00      0      0  184.4   0.03   0.03    0.6   0.77    0.04    0.04    0.01    0.00    0.00    0.00    0.00    0.00    0.00        0       9
 2020 189    35    34    1.1      0  0.021     11      2      0     10     14     14      0     0.0  0.000      0      0  0.968  0.979  0.000  0.000  0.000  0.000  0.000    5.79   0.00   0.00      0      0  184.5   0.03   0.03    0.5   0.77    0.04    0.04    0.01    0.00    0.00    0.00    0.00    0.00    0.00        0       9
 2020 190    36    35    1.1      0  0.021     11      2      0     10     14     14      0     0.0  0.000      0      0  0.977  0.985  0.000  0.000  0.000  0.000  0.000    5.80   0.00   0.00      0      0  184.6   0.03   0.03    0.5   0.77    0.04    0.04    0.01    0.00    0.00    0.00    0.00    0.00    0.00        0       9
 2020 191    37    36    1.1      0  0.021     11      2      0     10     14     14      0     0.0  0.000      0      0  0.969  0.979  0.000  0.000  0.000  0.000  0.000    5.80   0.00   0.00      0      0  184.7   0.03   0.03    0.5   0.77    0.04    0.04    0.01    0.00    0.00    0.00    0.00    0.00    0.00        0      10
 2020 192    38    37    1.1      0  0.021     11      2      0     10     14     14      0     0.0  0.000      0      0  0.964  0.976  0.000  0.000  0.000  0.000  0.000    5.80   0.00   0.00      0      0  184.7   0.03   0.03    0.4   0.80    0.04    0.04    0.01    0.00    0.00    0.00    0.00    0.00    0.00        0      10
 2020 193    39    38    1.1      0  0.021     11      2      0     10     14     14      0     0.0  0.000      0      0  0.977  0.984  0.000  0.000  0.000  0.000  0.000    5.80   0.00   0.00      0      0  184.8   0.03   0.03    0.4   0.80    0.03    0.03    0.01    0.00    0.00    0.00    0.00    0.00    0.00        0      10
 2020 194    40    39    1.2      0  0.021     11      2      0      9     14     14      0     0.0  0.000      0      0  0.978  0.985  0.000  0.000  0.000  0.000  0.000    5.81   0.00   0.00      0      0  184.9   0.03   0.03    0.4   0.80    0.03    0.03    0.01    0.00    0.00    0.00    0.00    0.00    0.00        0      10
 2020 195    41    40    1.2      0  0.021     11      2      0      9     14     14      0     0.0  0.000      0      0  0.980  0.987  0.000  0.000  0.000  0.000  0.000    5.81   0.00   0.00      0      0  185.0   0.03   0.03    0.3   0.80    0.03    0.03    0.01    0.00    0.00    0.00    0.00    0.00    0.00        0      10
 2020 196    42    41    1.2      0  0.021     11      2      0      9     14     14      0     0.0  0.000      0      0  0.976  0.984  0.000  0.000  0.000  0.000  0.000    5.81   0.00   0.00      0      0  185.1   0.03   0.03    0.3   0.80    0.03    0.03    0.01    0.00    0.00    0.00    0.00    0.00    0.00        0      11
 2020 197    43    42    1.2      0  0.021     11      2      0      9     14     14      0     0.0  0.000      0      0  0.964  0.976  0.000  0.000  0.000  0.000  0.000    5.81   0.00   0.00      0      0  185.1   0.03   0.03    0.3   0.82    0.03    0.03    0.01    0.00    0.00    0.00    0.00    0.00    0.00        0      11
 2020 198    44    43    1.2      0  0.021     11      2      0      9     14     14      0     0.0  0.000      0      0  0.975  0.983  0.000  0.000  0.000  0.000  0.000    5.82   0.00   0.00      0      0  185.2   0.03   0.03    0.3   0.82    0.03    0.03    0.01    0.00    0.00    0.00    0.00    0.00    0.00        0      11
 2020 199    45    44    1.2      0  0.021     11      2      0      9     14     14      0     0.0  0.000      0      0  0.984  0.989  0.000  0.000  0.000  0.000  0.000    5.82   0.00   0.00      0      0  185.3   0.03   0.03    0.3   0.82    0.03    0.03    0.01    0.00    0.00    0.00    0.00    0.00    0.00        0      11
 2020 200    46    45    1.2      0  0.021     11      2      0      8     14     14      0     0.0  0.000      0      0  0.968  0.979  0.000  0.000  0.000  0.000  0.000    5.82   0.00   0.00      0      0  185.4   0.03   0.03    0.2   0.85    0.03    0.03    0.01    0.00    0.00    0.00    0.00    0.00    0.00        0      11
 2020 201    47    46    1.2      0  0.021     11      2      0      8     14     14      0     0.0  0.000      0      0  0.962  0.974  0.000  0.000  0.000  0.000  0.000    5.82   0.00   0.00      0      0  185.4   0.03   0.03    0.2   0.87    0.03    0.03    0.01    0.00    0.00    0.00    0.00    0.00    0.00        0      11
 2020 202    48    47    1.2      0  0.021     11      2      0      8     14     14      0     0.0  0.000      0      0  0.969  0.979  0.000  0.000  0.000  0.000  0.000    5.83   0.00   0.00      0      0  185.5   0.03   0.03    0.2   0.90    0.03    0.03    0.01    0.00    0.00    0.00    0.00    0.00    0.00        0      12
 2020 203    49    48    1.2      0  0.021     11      2      0      8     14     14      0     0.0  0.000      0      0  0.968  0.979  0.000  0.000  0.000  0.000  0.000    5.83   0.00   0.00      0      0  185.5   0.03   0.03    0.2   0.92    0.03    0.03    0.01    0.00    0.00    0.00    0.00    0.00    0.00        0      12
 2020 204    50    49    1.2      0  0.021     11      2      0      8     14     14      0     0.0  0.000      0      0  0.974  0.983  0.000  0.000  0.000  0.000  0.000    5.83   0.00   0.00      0      0  185.6   0.03   0.03    0.2   0.92    0.03    0.03    0.01    0.00    0.00    0.00    0.00    0.00    0.00        0      12
 2020 205    51    50    1.2      0  0.021     11      2      0      8     14     14      0     0.0  0.000      0      0  0.977  0.985  0.000  0.000  0.000  0.000  0.000    5.83   0.00   0.00      0      0  185.7   0.03   0.03    0.2   0.92    0.03    0.03    0.01    0.00    0.00    0.00    0.00    0.00    0.00        0      12
 2020 206    52    51    1.2      0  0.021     11      2      0      8     14     14      0     0.0  0.000      0      0  0.980  0.987  0.000  0.000  0.000  0.000  0.000    5.83   0.00   0.00      0      0  185.7   0.03   0.03    0.2   0.92    0.03    0.03    0.01    0.00    0.00    0.00    0.00    0.00    0.00        0      12
 2020 207    53    52    1.2      0  0.021     11      2      0      8     14     14      0     0.0  0.000      0      0  0.981  0.988  0.000  0.000  0.000  0.000  0.000    5.84   0.00   0.00      0      0  185.8   0.03   0.03    0.1   0.92    0.03    0.03    0.01    0.00    0.00    0.00    0.00    0.00    0.00        0      12
 2020 208    54    53    1.2      0  0.021     11      2      0      7     14     14      0     0.0  0.000      0      0  0.978  0.985  0.000  0.000  0.000  0.000  0.000    5.84   0.00   0.00      0      0  185.9   0.03   0.03    0.1   0.92    0.03    0.03    0.01    0.00    0.00    0.00    0.00    0.00    0.00        0      12
 2020 209    55    54    1.2      0  0.021     11      2      0      7     14     14      0     0.0  0.000      0      0  0.935  0.957  0.000  0.000  0.000  0.000  0.000    5.84   0.00   0.00      0      0  185.9   0.03   0.03    0.1   0.94    0.03    0.03    0.01    0.00    0.00    0.00    0.00    0.00    0.00        0      13
 2020 210    56    55    1.2      0  0.021     11      2      0      7     14     14      0     0.0  0.000      0      0  0.935  0.957  0.000  0.000  0.000  0.000  0.000    5.84   0.00   0.00      0      0  185.9   0.03   0.03    0.1   0.96    0.03    0.03    0.01    0.00    0.00    0.00    0.00    0.00    0.00        0      13
 2020 211    57    56    1.2      0  0.021     11      2      0      7     14     14      0     0.0  0.000      0      0  0.965  0.977  0.000  0.000  0.000  0.000  0.000    5.84   0.00   0.00      0      0  186.0   0.03   0.03    0.1   0.98    0.03    0.03    0.01    0.00    0.00    0.00    0.00    0.00    0.00        0      13
 2020 212    58    57    1.3      0  0.021     11      2      0      7     14     14      0     0.0  0.000      0      0  0.958  0.972  0.000  0.000  0.000  0.000  0.000    5.84   0.00   0.00      0      0  186.0   0.03   0.03    0.1   1.00    0.03    0.03    0.01    0.00    0.00    0.00    0.00    0.00    0.00        0      13
 2020 213    59    58    1.3      0  0.021     11      2      0      7     14     14      0     0.0  0.000      0      0  0.964  0.976  0.000  0.000  0.000  0.000  0.000    5.85   0.00   0.00      0      0  186.0   0.03   0.03    0.1   1.02    0.03    0.03    0.01    0.00    0.00    0.00    0.00    0.00    0.00        0      13
 2020 214    60    59    1.3      0  0.021     11      2      0      7     14     14      0     0.0  0.000      0      0  0.965  0.977  0.000  0.000  0.000  0.000  0.000    5.85   0.00   0.00      0      0  186.1   0.03   0.03    0.1   1.04    0.03    0.03    0.01    0.00    0.00    0.00    0.00    0.00    0.00        0      13
 2020 215    61    60    1.3      0  0.021     11      2      0      7     14     14      0     0.0  0.000      0      0  0.961  0.974  0.000  0.000  0.000  0.000  0.000    5.85   0.00   0.00      0      0  186.1   0.03   0.03    0.1   1.06    0.03    0.03    0.01    0.00    0.00    0.00    0.00    0.00    0.00        0      13
 2020 216    62    61    1.3      0  0.021     11      2      0      7     14     14      0     0.0  0.000      0      0  0.962  0.975  0.000  0.000  0.000  0.000  0.000    5.85   0.00   0.00      0      0  186.2   0.03   0.03    0.1   1.08    0.02    0.02    0.01    0.00    0.00    0.00    0.00    0.00    0.00        0      13
 2020 217    63    62    1.3      0  0.021     11      2      0      7     14     14      0     0.0  0.000      0      0  0.964  0.976  0.000  0.000  0.000  0.000  0.000    5.85   0.00   0.00      0      0  186.2   0.03   0.03    0.1   1.10    0.02    0.02    0.01    0.00    0.00    0.00    0.00    0.00    0.00        0      13
 2020 218    64    63    1.3      0  0.021     11      2      0      7     14     14      0     0.0  0.000      0      0  0.962  0.975  0.000  0.000  0.000  0.000  0.000    5.85   0.00   0.00      0      0  186.2   0.03   0.03    0.1   1.12    0.02    0.02    0.01    0.00    0.00    0.00    0.00    0.00    0.00        0      13
 2020 219    65    64    1.3      0  0.021     11      2      0      7     14     14      0     0.0  0.000      0      0  0.955  0.970  0.000  0.000  0.000  0.000  0.000    5.85   0.00   0.00      0      0  186.3   0.03   0.03    0.1   1.14    0.02    0.02    0.01    0.00    0.00    0.00    0.00    0.00    0.00        0      14
 2020 220    66    65    1.3      0  0.021     11      2      0      7     14     14      0     0.0  0.000      0      0  0.967  0.978  0.000  0.000  0.000  0.000  0.000    5.86   0.00   0.00      0      0  186.3   0.03   0.03    0.1   1.17    0.02    0.02    0.01    0.00    0.00    0.00    0.00    0.00    0.00        0      14
 2020 221    67    66    1.3      0  0.021     11      2      0      7     14     14      0     0.0  0.000      0      0  0.972  0.981  0.000  0.000  0.000  0.000  0.000    5.86   0.00   0.00      0      0  186.4   0.03   0.03    0.1   1.19    0.02    0.02    0.01    0.00    0.00    0.00    0.00    0.00    0.00        0      14
 2020 222    68    67    1.3      0  0.021     11      2      0      6     14     14      0     0.0  0.000      0      0  0.975  0.983  0.000  0.000  0.000  0.000  0.000    5.86   0.00   0.00      0      0  186.4   0.03   0.03    0.0   1.19    0.02    0.02    0.01    0.00    0.00    0.00    0.00    0.00    0.00        0      14
 2020 223    69    68    1.3      0  0.021     11      2      0      6     14     14      0     0.0  0.000      0      0  0.969  0.979  0.000  0.000  0.000  0.000  0.000    5.86   0.00   0.00      0      0  186.4   0.03   0.03    0.0   1.21    0.02    0.02    0.01    0.00    0.00    0.00    0.00    0.00    0.00        0      14
 2020 224    70    69    1.3      0  0.021     11      2      0      6     14     14      0     0.0  0.000      0      0  0.974  0.982  0.000  0.000  0.000  0.000  0.000    5.86   0.00   0.00      0      0  186.5   0.03   0.03    0.0   1.24    0.02    0.02    0.01    0.00    0.00    0.00    0.00    0.00    0.00        0      14
 2020 225    71    70    1.3      0  0.021     11      2      0      6     14     14      0     0.0  0.000      0      0  0.972  0.981  0.000  0.000  0.000  0.000  0.000    5.86   0.00   0.00      0      0  186.5   0.03   0.03    0.0   1.26    0.02    0.02    0.01    0.00    0.00    0.00    0.00    0.00    0.00        0      14
 2020 226    72    71    1.3      0  0.021     11      2      0      6     14     14      0     0.0  0.000      0      0  0.973  0.982  0.000  0.000  0.000  0.000  0.000    5.86   0.00   0.00      0      0  186.6   0.03   0.03    0.0   1.28    0.02    0.02    0.01    0.00    0.00    0.00    0.00    0.00    0.00        0      14
 2020 227    73    72    1.3      0  0.021     11      2      0      6     14     14      0     0.0  0.000      0      0  0.972  0.982  0.000  0.000  0.000  0.000  0.000    5.87   0.00   0.00      0      0  186.6   0.03   0.03    0.0   1.31    0.02    0.02    0.01    0.00    0.00    0.00    0.00    0.00    0.00        0      14
 2020 228    74    73    1.3      0  0.021     11      2      0      6     14     14      0     0.0  0.000      0      0  0.973  0.982  0.000  0.000  0.000  0.000  0.000    5.87   0.00   0.00      0      0  186.7   0.03   0.03    0.0   1.33    0.02    0.02    0.01    0.00    0.00    0.00    0.00    0.00    0.00        0      15
 2020 229    75    74    1.3      0  0.021     11      2      0      6     14     14      0     0.0  0.000      0      0  0.979  0.986  0.000  0.000  0.000  0.000  0.000    5.87   0.00   0.00      0      0  186.7   0.03   0.03    0.0   1.33    0.02    0.02    0.01    0.00    0.00    0.00    0.00    0.00    0.00        0      15
 2020 230    76    75    1.3      0  0.021     11      2      0      6     14     14      0     0.0  0.000      0      0  0.971  0.981  0.000  0.000  0.000  0.000  0.000    5.87   0.00   0.00      0      0  186.7   0.03   0.03    0.0   1.35    0.02    0.02    0.01    0.00    0.00    0.00    0.00    0.00    0.00        0      15
 2020 231    77    76    1.3      0  0.021     11      2      0      6     14     14      0     0.0  0.000      0      0  0.973  0.982  0.000  0.000  0.000  0.000  0.000    5.87   0.00   0.00      0      0  186.8   0.03   0.03    0.0   1.37    0.02    0.02    0.01    0.00    0.00    0.00    0.00    0.00    0.00        0      15
 2020 232    78    77    1.4      0  0.021     11      2      0      6     14     14      0     0.0  0.000      0      0  0.971  0.981  0.000  0.000  0.000  0.000  0.000    5.87   0.00   0.00      0      0  186.8   0.03   0.03    0.0   1.40    0.02    0.02    0.01    0.00    0.00    0.00    0.00    0.00    0.00        0      15
 2020 233    79    78    1.4      0  0.021     11      2      0      6     14     14      0     0.0  0.000      0      0  0.973  0.982  0.000  0.000  0.000  0.000  0.000    5.87   0.00   0.00      0      0  186.8   0.03   0.03    0.0   1.42    0.02    0.02    0.01    0.00    0.00    0.00    0.00    0.00    0.00        0      15
 2020 234    80    79    1.4      0  0.021     11      2      0      5     14     14      0     0.0  0.000      0      0  0.971  0.980  0.000  0.000  0.000  0.000  0.000    5.87   0.00   0.00      0      0  186.9   0.03   0.03    0.0   1.44    0.02    0.02    0.01    0.00    0.00    0.00    0.00    0.00    0.00        0      15
 2020 235    81    80    1.4      0  0.021     11      2      0      5     14     14      0     0.0  0.000      0      0  0.974  0.983  0.000  0.000  0.000  0.000  0.000    5.87   0.00   0.00      0      0  186.9   0.03   0.03    0.0   1.46    0.02    0.02    0.01    0.00    0.00    0.00    0.00    0.00    0.00        0      15
 2020 236    82    81    1.4      0  0.021     11      2      0      5     14     14      0     0.0  0.000      0      0  0.975  0.983  0.000  0.000  0.000  0.000  0.000    5.88   0.00   0.00      0      0  186.9   0.03   0.03    0.0   1.49    0.02    0.02    0.01    0.00    0.00    0.00    0.00    0.00    0.00        0      15
 2020 237    83    82    1.4      0  0.021     11      2      0      5     14     14      0     0.0  0.000      0      0  0.979  0.986  0.000  0.000  0.000  0.000  0.000    5.88   0.00   0.00      0      0  187.0   0.03   0.03    0.0   1.49    0.02    0.02    0.01    0.00    0.00    0.00    0.00    0.00    0.00        0      15
 2020 238    84    83    1.4      0  0.021     11      2      0      5     14     14      0     0.0  0.000      0      0  0.979  0.986  0.000  0.000  0.000  0.000  0.000    5.88   0.00   0.00      0      0  187.0   0.03   0.03    0.0   1.49    0.02    0.02    0.01    0.00    0.00    0.00    0.00    0.00    0.00        0      15
 2020 239    85    84    1.4      0  0.021     11      2      0      5     14     14      0     0.0  0.000      0      0  0.979  0.986  0.000  0.000  0.000  0.000  0.000    5.88   0.00   0.00      0      0  187.0   0.03   0.03    0.0   1.49    0.02    0.02    0.01    0.00    0.00    0.00    0.00    0.00    0.00        0      16
 2020 240    86    85    1.4      0  0.021     11      2      0      5     14     14      0     0.0  0.000      0      0  0.978  0.985  0.000  0.000  0.000  0.000  0.000    5.88   0.00   0.00      0      0  187.1   0.03   0.03    0.0   1.49    0.02    0.02    0.01    0.00    0.00    0.00    0.00    0.00    0.00        0      16
 2020 241    87    86    1.4      0  0.021     11      2      0      5     14     14      0     0.0  0.000      0      0  0.978  0.986  0.000  0.000  0.000  0.000  0.000    5.88   0.00   0.00      0      0  187.1   0.03   0.03    0.0   1.49    0.02    0.02    0.01    0.00    0.00    0.00    0.00    0.00    0.00        0      16
 2020 242    88    87    1.4      0  0.021     11      2      0      5     14     14      0     0.0  0.000      0      0  0.946  0.964  0.000  0.000  0.000  0.000  0.000    5.88   0.00   0.00      0      0  187.1   0.03   0.03    0.0   1.50    0.02    0.02    0.01    0.00    0.00    0.00    0.00    0.00    0.00        0      16
 2020 243    89    88    1.4      0  0.021     11      2      0      5     14     14      0     0.0  0.000      0      0  0.972  0.982  0.000  0.000  0.000  0.000  0.000    5.88   0.00   0.00      0      0  187.1   0.03   0.03    0.0   1.53    0.02    0.02    0.01    0.00    0.00    0.00    0.00    0.00    0.00        0      16
 2020 244    90    89    1.4      0  0.021     11      2      0      5     14     14      0     0.0  0.000      0      0  0.972  0.981  0.000  0.000  0.000  0.000  0.000    5.88   0.00   0.00      0      0  187.1   0.03   0.03    0.0   1.54    0.02    0.02    0.01    0.00    0.00    0.00    0.00    0.00    0.00        0      16
 2020 245    91    90    1.4      0  0.021     11      2      0      5     14     14      0     0.0  0.000      0      0  0.957  0.971  0.000  0.000  0.000  0.000  0.000    5.88   0.00   0.00      0      0  187.2   0.03   0.03    0.0   1.56    0.02    0.02    0.01    0.00    0.00    0.00    0.00    0.00    0.00        0      16
 2020 246    92    91    1.4      0  0.021     11      2      0      5     14     14      0     0.0  0.000      0      0  0.974  0.982  0.000  0.000  0.000  0.000  0.000    5.89   0.00   0.00      0      0  187.2   0.03   0.03    0.0   1.58    0.02    0.02    0.01    0.00    0.00    0.00    0.00    0.00    0.00        0      16
 2020 247    93    92    1.6      0  0.022     13      3      0      6     15     15      0     0.0  0.000      0      0  0.000  0.000  0.573  0.000  0.000  0.000  0.000    5.25   0.00   0.00      0      0  171.2   0.03   0.03    0.0   1.60    0.02    0.02    0.01    0.00    0.00    0.00    0.00    0.00    0.00        0      16
 2020 248    94    93    1.8      0  0.023     14      3      0      6     16     16      0     0.0  0.000      0      0  0.000  0.000  0.427  0.000  0.000  0.000  0.000    4.98   0.00   0.00      0      0  166.6   0.04   0.04    0.0   1.61    0.02    0.02    0.01    0.00    0.00    0.00    0.00    0.00    0.00        0      16
 2020 249    95    94    2.0      0  0.024     16      3      0      8     19     19      0     0.0  0.000      0      0  0.000  0.000  0.628  0.000  0.000  0.000  0.000    4.41   0.00   0.00      0      0  153.7   0.05   0.05    0.0   1.63    0.02    0.02    0.01    0.00    0.00    0.00    0.00    0.00    0.00        0      16
 2020 250    96    95    2.3      0  0.025     17      3      0      9     20     20      0     0.0  0.000      0      0  0.000  0.000  0.617  0.000  0.000  0.000  0.000    4.00   0.00   0.00      0      0  147.1   0.06   0.06    0.0   1.65    0.02    0.02    0.01    0.00    0.00    0.00    0.00    0.00    0.00        1      16
 2020 251    97    96    2.5      1  0.027     18      4      0     10     22     22      0     0.0  0.000      0      0  0.000  0.000  0.558  0.000  0.000  0.000  0.000    3.78   0.00   0.00      0      0  145.2   0.07   0.07    0.0   1.67    0.02    0.02    0.01    0.00    0.00    0.00    0.00    0.00    0.00        2      17
 2020 252    98    97    2.6      1  0.027     18      4      0     10     22     22      0     0.0  0.000      0      0  0.000  0.000  0.000  0.000  0.000  0.000  0.000    3.89   0.00   0.00      0      0  145.5   0.08   0.09    0.0   1.67    0.02    0.02    0.01    0.00    0.00    0.00    0.00    0.00    0.00        2      17
 2020 253    99    98    2.6      1  0.027     18      4      0     10     22     22      0     0.0  0.000      0      0  0.000  0.000  0.000  0.000  0.000  0.000  0.000    3.89   0.00   0.00      0      0  145.5   0.08   0.09    0.0   1.67    0.02    0.02    0.01    0.00    0.00    0.00    0.00    0.00    0.00        2      17
 2020 254   100    99    2.6      1  0.027     19      4      0     10     22     22      0     0.0  0.000      0      0  0.000  0.000  0.000  0.000  0.000  0.000  0.000    3.92   0.00   0.00      0      0  145.6   0.08   0.09    0.0   1.68    0.02    0.02    0.01    0.00    0.00    0.00    0.00    0.00    0.00        2      17
 2020 255   101   100    2.8      1  0.028     20      4      0     11     24     24      0     0.0  0.000      0      0  0.000  0.000  0.653  0.000  0.000  0.000  0.000    3.72   0.00   0.00      0      0  139.3   0.08   0.09    0.0   1.69    0.03    0.03    0.01    0.00    0.00    0.00    0.00    0.00    0.00        2      17
 2020 256   102   101    2.9      1  0.028     21      5      0     12     26     26      0     0.0  0.000      0      0  0.000  0.000  0.682  0.000  0.000  0.000  0.000    3.54   0.00   0.00      0      0  134.1   0.09   0.09    0.0   1.70    0.03    0.03    0.01    0.00    0.00    0.00    0.00    0.00    0.00        2      17
 2020 257   103   102    3.1      1  0.029     22      5      0     13     27     27      0     0.0  0.000      0      0  0.000  0.000  0.592  0.000  0.000  0.000  0.000    3.45   0.00   0.00      0      0  131.6   0.09   0.10    0.0   1.71    0.03    0.03    0.01    0.00    0.00    0.01    0.00    0.00    0.00        2      17
 2020 258   104   103    3.2      1  0.030     23      6      0     14     29     29      0     0.0  0.000      0      0  0.000  0.000  0.641  0.000  0.000  0.000  0.000    3.32   0.00   0.00      0      0  128.4   0.10   0.11    0.0   1.72    0.03    0.03    0.01    0.00    0.00    0.01    0.00    0.00    0.00        2      17
 2020 259   105   104    3.4      1  0.030     24      6      0     15     30     30      0     0.0  0.000      0      0  0.000  0.000  0.643  0.000  0.000  0.000  0.000    3.21   0.00   0.00      0      0  125.2   0.11   0.11    0.0   1.74    0.03    0.03    0.01    0.01    0.01    0.01    0.00    0.00    0.00        2      17
 2020 260   106   105    3.6      1  0.031     25      7      0     16     32     32      0     0.0  0.000      0      0  0.000  0.000  0.589  0.000  0.000  0.000  0.000    3.13   0.00   0.00      0      0  123.2   0.11   0.12    0.0   1.75    0.03    0.03    0.01    0.01    0.01    0.01    0.00    0.00    0.00        2      17
 2020 261   107   106    3.7      1  0.032     26      7      0     16     34     34      0     0.0  0.000      0      0  0.000  0.000  0.623  0.000  0.000  0.000  0.000    3.04   0.00   0.00      0      0  120.7   0.12   0.13    0.1   1.76    0.03    0.03    0.01    0.01    0.01    0.01    0.00    0.00    0.00        2      17
 2020 262   108   107    3.9      1  0.033     27      8      0     17     36     36      0     0.0  0.000      0      0  0.000  0.000  0.602  0.000  0.000  0.000  0.000    2.96   0.00   0.00      0      0  118.8   0.12   0.13    0.1   1.77    0.03    0.03    0.02    0.01    0.01    0.01    0.00    0.00    0.00        2      18
 2020 263   109   108    4.1      1  0.033     29      9      0     19     38     38      0     0.0  0.000      0      0  0.000  0.000  0.640  0.000  0.000  0.000  0.000    2.87   0.00   0.00      0      0  116.3   0.13   0.14    0.1   1.79    0.04    0.04    0.02    0.01    0.01    0.01    0.00    0.00    0.00        2      18
 2020 264   110   109    4.3      1  0.034     30     10      0     20     40     40      0     0.0  0.000      0      0  0.000  0.000  0.683  0.000  0.000  0.000  0.000    2.76   0.00   0.00      0      0  113.4   0.14   0.15    0.1   1.80    0.04    0.04    0.02    0.01    0.01    0.01    0.00    0.00    0.00        2      18
 2020 265   111   110    4.5      1  0.035     32     11      0     21     43     43      0     0.0  0.000      0      0  0.000  0.000  0.628  0.000  0.000  0.000  0.000    2.69   0.00   0.00      0      0  111.5   0.15   0.16    0.1   1.80    0.04    0.04    0.02    0.01    0.01    0.01    0.00    0.00    0.00        2      18
 2020 266   112   111    4.6      1  0.036     33     12      0     22     45     45      0     0.0  0.000      0      0  0.000  0.000  0.604  0.000  0.000  0.000  0.000    2.63   0.00   0.00      0      0  109.6   0.16   0.17    0.1   1.80    0.04    0.04    0.02    0.01    0.01    0.01    0.00    0.00    0.00        2      19
 2020 267   113   112    4.9      1  0.037     35     13      0     24     48     48      0     0.0  0.000      0      0  0.000  0.000  0.641  0.000  0.000  0.000  0.000    2.56   0.00   0.00      0      0  107.5   0.16   0.17    0.1   1.80    0.04    0.04    0.02    0.01    0.01    0.01    0.00    0.00    0.00        3      19
 2020 268   114   113    5.1      1  0.038     36     14      0     25     50     50      0     0.0  0.000      0      0  0.000  0.000  0.472  0.000  0.000  0.000  0.000    2.52   0.00   0.00      0      0  106.1   0.17   0.18    0.2   1.80    0.05    0.05    0.02    0.01    0.01    0.01    0.00    0.00    0.00        3      19
 2020 269   115   114    5.3      1  0.039     37     15      0     27     53     53      0     0.0  0.000      0      0  0.000  0.000  0.475  0.000  0.000  0.000  0.000    2.47   0.00   0.00      0      0  104.5   0.18   0.19    0.2   1.80    0.05    0.05    0.02    0.01    0.01    0.01    0.00    0.00    0.00        3      19
 2020 270   116   115    5.5      1  0.040     38     17      0     28     55     55      0     0.0  0.000      0      0  0.000  0.000  0.445  0.000  0.000  0.000  0.000    2.43   0.00   0.00      0      0  103.2   0.19   0.20    0.2   1.80    0.05    0.05    0.02    0.01    0.01    0.01    0.01    0.00    0.00        3      20
 2020 271   117   116    5.5      3  0.040     39     18      0     30     58     58      0     0.0  0.000      0      0  0.000  0.000  0.361  0.000  0.000  0.000  0.000    2.42   0.00   0.00      0      0  102.1   0.20   0.21    0.3   1.80    0.05    0.05    0.02    0.01    0.01    0.02    0.01    0.00    0.00        3      20
 2020 272   118   117    5.5      3  0.041     40     18      0     30     58     58      0     0.0  0.000      0      0  0.000  0.000  0.000  0.000  0.000  0.000  0.000    2.46   0.00   0.00      0      0  101.9   0.20   0.22    0.2   1.80    0.05    0.05    0.02    0.01    0.01    0.02    0.01    0.00    0.00        3      20
 2020 273   119   118    5.5      3  0.041     40     19      0     30     59     59      0     0.0  0.000      0      0  0.000  0.000  0.000  0.000  0.000  0.000  0.000    2.50   0.00   0.00      0      0  102.0   0.21   0.23    0.2   1.80    0.05    0.05    0.02    0.01    0.01    0.02    0.01    0.00    0.00        3      20
 2020 274   120   119    5.5      3  0.042     41     20      0     30     61     61      0     0.0  0.000      0      1  0.000  0.000  0.047  0.000  0.000  0.000  0.000    2.52   0.00   0.00      0      0  101.6   0.22   0.24    0.3   1.80    0.05    0.05    0.02    0.01    0.01    0.02    0.01    0.00    0.00        3      21
 2020 275   121   120    5.5      3  0.042     41     20      0     31     61     62      0     0.0  0.000      0      1  0.000  0.000  0.000  0.000  0.000  0.000  0.000    2.56   0.00   0.00      0      0  101.5   0.23   0.24    0.3   1.80    0.05    0.05    0.02    0.01    0.01    0.02    0.01    0.00    0.00        3      21
 2020 276   122   121    5.5      3  0.042     42     21      0     31     62     62      0     0.0  0.000      0      1  0.000  0.000  0.000  0.000  0.000  0.000  0.000    2.59   0.00   0.00      0      0  101.5   0.23   0.24    0.2   1.80    0.05    0.05    0.02    0.01    0.01    0.02    0.01    0.00    0.00        3      21
 2020 277   123   122    5.5      3  0.042     42     21      0     31     63     63      0     0.0  0.000      0      2  0.000  0.000  0.000  0.000  0.000  0.000  0.000    2.63   0.00   0.01      0      0  101.2   0.23   0.24    0.2   1.80    0.05    0.05    0.03    0.01    0.01    0.02    0.01    0.00    0.00        3      21
 2020 278   124   123    5.5      3  0.043     42     21      0     31     63     64      0     0.0  0.000      0      2  0.000  0.000  0.000  0.000  0.000  0.000  0.000    2.69   0.00   0.01      0      0  101.5   0.23   0.24    0.2   1.80    0.05    0.05    0.02    0.01    0.01    0.02    0.01    0.00    0.00        3      22
 2020 279   125   124    5.5      3  0.043     43     23      0     32     66     67      0     0.0  0.000      1      2  0.000  0.000  0.114  0.000  0.000  0.000  0.000    2.69   0.00   0.01      0      1  100.0   0.23   0.24    0.2   1.80    0.05    0.05    0.03    0.01    0.01    0.02    0.01    0.00    0.00        3      22
 2020 280   126   125    5.5      3  0.044     44     25      0     32     69     70      0     0.0  0.000      1      3  0.000  0.000  0.000  0.000  0.000  0.000  0.000    2.71   0.00   0.01      0      1   99.2   0.23   0.24    0.3   1.80    0.06    0.06    0.03    0.01    0.01    0.02    0.01    0.00    0.00        3      22
 2020 281   127   126    5.5      3  0.044     45     26      0     32     71     72      0     0.0  0.000      1      4  0.000  0.000  0.000  0.000  0.000  0.000  0.000    2.75   0.00   0.02      0      1   98.6   0.23   0.24    0.3   1.80    0.06    0.06    0.03    0.01    0.01    0.02    0.01    0.00    0.00        3      23
 2020 282   128   127    5.5      3  0.045     46     28      0     33     73     75      0     0.0  0.000      2      5  0.000  0.000  0.000  0.000  0.000  0.000  0.000    2.77   0.00   0.02      0      2   97.6   0.23   0.24    0.3   1.80    0.06    0.06    0.03    0.01    0.01    0.02    0.01    0.00    0.00        4      23
 2020 283   129   128    5.5      5  0.045     47     29      0     33     76     78      0     0.0  0.000      2      5  0.000  0.000  0.000  0.000  0.000  0.000  0.000    2.79   0.00   0.03      0      2   96.3   0.23   0.24    0.4   1.80    0.06    0.06    0.03    0.01    0.01    0.02    0.01    0.00    0.00        4      23
 2020 284   130   129    5.5      5  0.045     47     31      0     34     79     81      1     1.7  0.000      2      6  0.000  0.000  0.000  0.000  0.000  0.000  0.000    2.81   0.45   0.03      0      2   95.2   0.23   0.24    0.5   1.80    0.06    0.06    0.03    0.01    0.01    0.02    0.01    0.00    0.00        4      24
 2020 285   131   130    5.5      5  0.045     48     34      0     34     82     85      1     3.8  0.001      3      7  0.000  0.000  0.000  0.000  0.000  0.000  0.000    2.81   1.67   0.03      0      3   93.4   0.23   0.24    0.5   1.80    0.06    0.06    0.03    0.01    0.01    0.02    0.01    0.00    0.00        5      24
 2020 286   132   131    5.5      5  0.045     48     34      0     34     82     85      1     7.1  0.001      3      9  0.000  0.000  0.000  0.000  0.000  0.000  0.000    2.82   3.05   0.03      0      3   93.7   0.23   0.24    0.5   1.80    0.06    0.06    0.03    0.01    0.01    0.02    0.01    0.00    0.00        5      24
 2020 287   133   132    5.5      5  0.045     48     34      0     34     82     85      2     8.5  0.002      3      8  0.000  0.000  0.000  0.000  0.000  0.000  0.000    2.87   4.51   0.04      0      3   94.1   0.23   0.24    0.5   1.80    0.06    0.06    0.03    0.01    0.01    0.02    0.01    0.00    0.00        5      25
 2020 288   134   133    5.5      5  0.045     49     35      0     34     84     88      2    10.8  0.002      4      8  0.000  0.000  0.000  0.000  0.000  0.000  0.000    2.89   5.96   0.04      0      4   92.9   0.23   0.24    0.4   1.80    0.06    0.06    0.03    0.01    0.01    0.02    0.01    0.00    0.00        5      25
 2020 289   135   134    5.5      5  0.045     49     35      0     34     84     88      2    12.9  0.003      4     10  0.000  0.000  0.000  0.000  0.000  0.000  0.000    2.92   6.77   0.04      0      4   93.1   0.23   0.24    0.4   1.80    0.06    0.06    0.03    0.01    0.01    0.02    0.01    0.00    0.00        5      25
 2020 290   136   135    5.5      5  0.045     49     35      0     34     84     88      2    12.9  0.003      4     10  0.000  0.000  0.000  0.000  0.000  0.000  0.000    2.92   6.77   0.04      0      4   93.1   0.23   0.24    0.4   1.80    0.06    0.06    0.03    0.01    0.01    0.02    0.01    0.00    0.00        5      25

*DSSAT Cropping System Model Ver. 4.7.5.035 -develop  MAY 07, 2021 11:55:39

*RUN   2        : 20 RAINFED BRAGG          CRGRO047 UFGA7801    2
 MODEL          : CRGRO047 - Soybean
 EXPERIMENT     : UFGA7801 SB BRAGG, IRRIGATED & NON-IRRIGATED
 DATA PATH      :
 TREATMENT  2   : 20 RAINFED BRAGG          CRGRO047
  
!                                                                                                                                                                                                                                                    Root Dens. (cm/cm3) by soil depth (cm):
!                                                                                                                                                                                                                                                    0-5    5-15   15-30   30-45   45-60   60-90  90-120 120-150 150-180
@YEAR DOY   DAS   DAP   L#SD   GSTD   LAID   LWAD   SWAD   GWAD   RWAD   VWAD   CWAD   G#AD    GWGD   HIAD   PWAD   P#AD   WSPD   WSGD   NSTD  PST1A  PST2A   KSTD   EWSD    LN%D   SH%D   HIPD   PWDD   PWTD   SLAD   CHTD   CWID   NWAD   RDPD    RL1D    RL2D    RL3D    RL4D    RL5D    RL6D    RL7D    RL8D    RL9D    SNW0C   SNW1C
 2020 155     1     0    0.0      0  0.000      0      0      0      0      0      0      0     0.0  0.000      0      0  0.000  0.000  0.000  0.000  0.000  0.000  0.000    0.00   0.00   0.00      0      0    0.0   0.00   0.00    0.0   0.00    0.00    0.00    0.00    0.00    0.00    0.00    0.00    0.00    0.00        0       0
 2020 156     2     1    0.0      0  0.000      0      0      0      0      0      0      0     0.0  0.000      0      0  0.000  0.000  0.000  0.000  0.000  0.000  0.000    0.00   0.00   0.00      0      0    0.0   0.00   0.00    0.0   0.00    0.00    0.00    0.00    0.00    0.00    0.00    0.00    0.00    0.00        0       0
 2020 157     3     2    0.0      0  0.000      0      0      0      0      0      0      0     0.0  0.000      0      0  0.000  0.000  0.000  0.000  0.000  0.000  0.000    0.00   0.00   0.00      0      0    0.0   0.00   0.00    0.0   0.00    0.00    0.00    0.00    0.00    0.00    0.00    0.00    0.00    0.00        0       0
 2020 158     4     3    0.0      0  0.000      0      0      0      0      0      0      0     0.0  0.000      0      0  0.000  0.000  0.000  0.000  0.000  0.000  0.000    0.00   0.00   0.00      0      0    0.0   0.00   0.00    0.0   0.00    0.00    0.00    0.00    0.00    0.00    0.00    0.00    0.00    0.00        0       0
 2020 159     5     4    0.0      0  0.000      0      0      0      0      0      0      0     0.0  0.000      0      0  0.000  0.000  0.000  0.000  0.000  0.000  0.000    0.00   0.00   0.00      0      0    0.0   0.00   0.00    0.0   0.00    0.00    0.00    0.00    0.00    0.00    0.00    0.00    0.00    0.00        0       0
 2020 160     6     5    0.0      0  0.000      0      0      0      0      0      0      0     0.0  0.000      0      0  0.000  0.000  0.000  0.000  0.000  0.000  0.000    0.00   0.00   0.00      0      0    0.0   0.00   0.00    0.0   0.00    0.00    0.00    0.00    0.00    0.00    0.00    0.00    0.00    0.00        0       0
 2020 161     7     6    0.1      0  0.021     11      3      0     14     14     14      0     0.0  0.000      0      0  0.000  0.000  0.000  0.000  0.000  0.000  0.000    5.70   0.00   0.00      0      0  182.8   0.03   0.03    3.9   0.21    0.05    0.05    0.02    0.00    0.00    0.00    0.00    0.00    0.00        0       0
 2020 162     8     7    0.1      0  0.021     11      3      0     14     14     14      0     0.0  0.000      0      0  0.839  0.893  0.000  0.000  0.000  0.000  0.000    5.70   0.00   0.00      0      0  182.7   0.03   0.03    3.6   0.23    0.05    0.05    0.02    0.00    0.00    0.00    0.00    0.00    0.00        0       1
 2020 163     9     8    0.2      0  0.021     11      3      0     14     14     14      0     0.0  0.000      0      0  0.896  0.931  0.000  0.000  0.000  0.000  0.000    5.71   0.00   0.00      0      0  182.8   0.03   0.03    3.4   0.25    0.05    0.05    0.02    0.00    0.00    0.00    0.00    0.00    0.00        0       1
 2020 164    10     9    0.4      0  0.021     11      3      0     14     14     14      0     0.0  0.000      0      0  0.900  0.933  0.000  0.000  0.000  0.000  0.000    5.71   0.00   0.00      0      0  182.8   0.03   0.03    3.1   0.27    0.05    0.05    0.02    0.00    0.00    0.00    0.00    0.00    0.00        0       2
 2020 165    11    10    0.5      0  0.021     11      3      0     13     14     14      0     0.0  0.000      0      0  0.926  0.951  0.000  0.000  0.000  0.000  0.000    5.71   0.00   0.00      0      0  182.9   0.03   0.03    2.9   0.29    0.05    0.05    0.02    0.00    0.00    0.00    0.00    0.00    0.00        0       2
 2020 166    12    11    0.6      0  0.021     11      3      0     13     14     14      0     0.0  0.000      0      0  0.943  0.962  0.000  0.000  0.000  0.000  0.000    5.72   0.00   0.00      0      0  183.0   0.03   0.03    2.7   0.32    0.05    0.05    0.02    0.00    0.00    0.00    0.00    0.00    0.00        0       3
 2020 167    13    12    0.7      0  0.021     11      2      0     13     14     14      0     0.0  0.000      0      0  0.951  0.967  0.000  0.000  0.000  0.000  0.000    5.72   0.00   0.00      0      0  183.2   0.03   0.03    2.5   0.34    0.05    0.05    0.02    0.00    0.00    0.00    0.00    0.00    0.00        0       3
 2020 168    14    13    0.8      0  0.021     11      2      0     13     14     14      0     0.0  0.000      0      0  0.950  0.967  0.000  0.000  0.000  0.000  0.000    5.73   0.00   0.00      0      0  183.3   0.03   0.03    2.4   0.37    0.05    0.05    0.02    0.00    0.00    0.00    0.00    0.00    0.00        0       3
 2020 169    15    14    0.9      0  0.021     11      2      0     13     14     14      0     0.0  0.000      0      0  0.954  0.970  0.000  0.000  0.000  0.000  0.000    5.73   0.00   0.00      0      0  183.4   0.03   0.03    2.2   0.39    0.05    0.05    0.02    0.00    0.00    0.00    0.00    0.00    0.00        0       4
 2020 170    16    15    0.9      0  0.021     11      2      0     12     14     14      0     0.0  0.000      0      0  0.938  0.959  0.000  0.000  0.000  0.000  0.000    5.73   0.00   0.00      0      0  183.5   0.03   0.03    2.0   0.42    0.05    0.05    0.02    0.00    0.00    0.00    0.00    0.00    0.00        0       4
 2020 171    17    16    0.9      0  0.021     11      2      0     12     14     14      0     0.0  0.000      0      0  0.872  0.915  0.000  0.000  0.000  0.000  0.000    5.74   0.00   0.00      0      0  183.5   0.03   0.03    1.9   0.43    0.05    0.05    0.02    0.00    0.00    0.00    0.00    0.00    0.00        0       4
 2020 172    18    17    1.0      0  0.021     11      2      0     12     14     14      0     0.0  0.000      0      0  0.933  0.955  0.000  0.000  0.000  0.000  0.000    5.74   0.00   0.00      0      0  183.5   0.03   0.03    1.8   0.46    0.05    0.05    0.02    0.00    0.00    0.00    0.00    0.00    0.00        0       5
 2020 173    19    18    1.0      0  0.021     11      2      0     12     14     14      0     0.0  0.000      0      0  0.938  0.959  0.000  0.000  0.000  0.000  0.000    5.74   0.00   0.00      0      0  183.6   0.03   0.03    1.6   0.48    0.05    0.05    0.02    0.00    0.00    0.00    0.00    0.00    0.00        0       5
 2020 174    20    19    1.0      0  0.021     11      2      0     12     14     14      0     0.0  0.000      0      0  0.942  0.961  0.000  0.000  0.000  0.000  0.000    5.75   0.00   0.00      0      0  183.7   0.03   0.03    1.5   0.50    0.05    0.05    0.02    0.00    0.00    0.00    0.00    0.00    0.00        0       5
 2020 175    21    20    1.0      0  0.021     11      2      0     12     14     14      0     0.0  0.000      0      0  0.943  0.962  0.000  0.000  0.000  0.000  0.000    5.75   0.00   0.00      0      0  183.8   0.03   0.03    1.4   0.52    0.04    0.04    0.02    0.00    0.00    0.00    0.00    0.00    0.00        0       6
 2020 176    22    21    1.0      0  0.021     11      2      0     12     14     14      0     0.0  0.000      0      0  0.969  0.979  0.000  0.000  0.000  0.000  0.000    5.75   0.00   0.00      0      0  183.9   0.03   0.03    1.3   0.52    0.04    0.04    0.01    0.00    0.00    0.00    0.00    0.00    0.00        0       6
 2020 177    23    22    1.0      0  0.021     11      2      0     12     14     14      0     0.0  0.000      0      0  0.977  0.985  0.000  0.000  0.000  0.000  0.000    5.76   0.00   0.00      0      0  184.0   0.03   0.03    1.2   0.52    0.04    0.04    0.01    0.00    0.00    0.00    0.00    0.00    0.00        0       6
 2020 178    24    23    1.0      0  0.021     11      2      0     11     14     14      0     0.0  0.000      0      0  0.973  0.982  0.000  0.000  0.000  0.000  0.000    5.76   0.00   0.00      0      0  184.1   0.03   0.03    1.1   0.52    0.04    0.04    0.01    0.00    0.00    0.00    0.00    0.00    0.00        0       7
 2020 179    25    24    1.0      0  0.021     11      2      0     11     14     14      0     0.0  0.000      0      0  0.976  0.984  0.000  0.000  0.000  0.000  0.000    5.76   0.00   0.00      0      0  184.2   0.03   0.03    1.1   0.52    0.04    0.04    0.01    0.00    0.00    0.00    0.00    0.00    0.00        0       7
 2020 180    26    25    1.0      0  0.021     11      2      0     11     14     14      0     0.0  0.000      0      0  0.981  0.987  0.000  0.000  0.000  0.000  0.000    5.77   0.00   0.00      0      0  184.3   0.03   0.03    1.0   0.52    0.04    0.04    0.01    0.00    0.00    0.00    0.00    0.00    0.00        0       7
 2020 181    27    26    1.0      0  0.021     11      2      0     11     14     14      0     0.0  0.000      0      0  0.986  0.991  0.000  0.000  0.000  0.000  0.000    5.77   0.00   0.00      0      0  184.4   0.03   0.03    0.9   0.52    0.04    0.04    0.01    0.00    0.00    0.00    0.00    0.00    0.00        0       7
 2020 182    28    27    1.0      0  0.021     11      2      0     11     14     14      0     0.0  0.000      0      0  0.985  0.990  0.000  0.000  0.000  0.000  0.000    5.77   0.00   0.00      0      0  184.5   0.03   0.03    0.9   0.52    0.04    0.04    0.01    0.00    0.00    0.00    0.00    0.00    0.00        0       8
 2020 183    29    28    1.0      0  0.021     11      2      0     10     14     14      0     0.0  0.000      0      0  0.983  0.988  0.000  0.000  0.000  0.000  0.000    5.78   0.00   0.00      0      0  184.6   0.03   0.03    0.8   0.52    0.04    0.04    0.01    0.00    0.00    0.00    0.00    0.00    0.00        0       8
 2020 184    30    29    1.0      0  0.021     11      2      0     10     14     14      0     0.0  0.000      0      0  0.985  0.990  0.000  0.000  0.000  0.000  0.000    5.78   0.00   0.00      0      0  184.7   0.03   0.03    0.7   0.52    0.04    0.04    0.01    0.00    0.00    0.00    0.00    0.00    0.00        0       8
 2020 185    31    30    1.0      0  0.021     11      2      0     10     14     14      0     0.0  0.000      0      0  0.984  0.990  0.000  0.000  0.000  0.000  0.000    5.78   0.00   0.00      0      0  184.8   0.03   0.03    0.7   0.52    0.04    0.04    0.01    0.00    0.00    0.00    0.00    0.00    0.00        0       8
 2020 186    32    31    1.0      0  0.021     11      2      0     10     14     14      0     0.0  0.000      0      0  0.984  0.990  0.000  0.000  0.000  0.000  0.000    5.79   0.00   0.00      0      0  184.9   0.03   0.03    0.6   0.52    0.04    0.04    0.01    0.00    0.00    0.00    0.00    0.00    0.00        0       8
 2020 187    33    32    1.0      0  0.021     11      2      0     10     14     14      0     0.0  0.000      0      0  0.976  0.984  0.000  0.000  0.000  0.000  0.000    5.79   0.00   0.00      0      0  185.0   0.03   0.03    0.6   0.52    0.04    0.04    0.01    0.00    0.00    0.00    0.00    0.00    0.00        0       9
 2020 188    34    33    1.0      0  0.021     11      2      0     10     14     14      0     0.0  0.000      0      0  0.985  0.990  0.000  0.000  0.000  0.000  0.000    5.79   0.00   0.00      0      0  185.1   0.03   0.03    0.6   0.52    0.04    0.04    0.01    0.00    0.00    0.00    0.00    0.00    0.00        0       9
 2020 189    35    34    1.0      0  0.021     11      2      0      9     14     14      0     0.0  0.000      0      0  0.989  0.992  0.000  0.000  0.000  0.000  0.000    5.79   0.00   0.00      0      0  185.2   0.03   0.03    0.5   0.52    0.04    0.04    0.01    0.00    0.00    0.00    0.00    0.00    0.00        0       9
 2020 190    36    35    1.0      0  0.021     11      2      0      9     14     14      0     0.0  0.000      0      0  0.992  0.995  0.000  0.000  0.000  0.000  0.000    5.80   0.00   0.00      0      0  185.2   0.03   0.03    0.5   0.52    0.04    0.04    0.01    0.00    0.00    0.00    0.00    0.00    0.00        0       9
 2020 191    37    36    1.0      0  0.021     11      2      0      9     14     14      0     0.0  0.000      0      0  0.990  0.993  0.000  0.000  0.000  0.000  0.000    5.80   0.00   0.00      0      0  185.3   0.03   0.03    0.4   0.52    0.03    0.03    0.01    0.00    0.00    0.00    0.00    0.00    0.00        0       9
 2020 192    38    37    1.0      0  0.021     11      2      0      9     14     14      0     0.0  0.000      0      0  0.987  0.992  0.000  0.000  0.000  0.000  0.000    5.80   0.00   0.00      0      0  185.4   0.03   0.03    0.4   0.52    0.03    0.03    0.01    0.00    0.00    0.00    0.00    0.00    0.00        0      10
 2020 193    39    38    1.0      0  0.021     11      2      0      9     14     14      0     0.0  0.000      0      0  0.991  0.994  0.000  0.000  0.000  0.000  0.000    5.80   0.00   0.00      0      0  185.5   0.03   0.03    0.4   0.52    0.03    0.03    0.01    0.00    0.00    0.00    0.00    0.00    0.00        0      10
 2020 194    40    39    1.0      0  0.021     11      2      0      9     14     14      0     0.0  0.000      0      0  0.992  0.994  0.000  0.000  0.000  0.000  0.000    5.81   0.00   0.00      0      0  185.6   0.03   0.03    0.4   0.52    0.03    0.03    0.01    0.00    0.00    0.00    0.00    0.00    0.00        0      10
 2020 195    41    40    1.0      0  0.021     11      2      0      9     14     14      0     0.0  0.000      0      0  0.992  0.995  0.000  0.000  0.000  0.000  0.000    5.81   0.00   0.00      0      0  185.7   0.03   0.03    0.3   0.52    0.03    0.03    0.01    0.00    0.00    0.00    0.00    0.00    0.00        0      10
 2020 196    42    41    1.0      0  0.021     11      2      0      8     14     14      0     0.0  0.000      0      0  0.991  0.994  0.000  0.000  0.000  0.000  0.000    5.81   0.00   0.00      0      0  185.7   0.03   0.03    0.3   0.52    0.03    0.03    0.01    0.00    0.00    0.00    0.00    0.00    0.00        0      10
 2020 197    43    42    1.0      0  0.021     11      2      0      8     14     14      0     0.0  0.000      0      0  0.987  0.991  0.000  0.000  0.000  0.000  0.000    5.81   0.00   0.00      0      0  185.8   0.03   0.03    0.3   0.52    0.03    0.03    0.01    0.00    0.00    0.00    0.00    0.00    0.00        0      10
 2020 198    44    43    1.0      0  0.021     11      2      0      8     14     14      0     0.0  0.000      0      0  0.992  0.995  0.000  0.000  0.000  0.000  0.000    5.82   0.00   0.00      0      0  185.9   0.03   0.03    0.3   0.52    0.03    0.03    0.01    0.00    0.00    0.00    0.00    0.00    0.00        0      11
 2020 199    45    44    1.0      0  0.021     11      2      0      8     14     14      0     0.0  0.000      0      0  0.994  0.996  0.000  0.000  0.000  0.000  0.000    5.82   0.00   0.00      0      0  186.0   0.03   0.03    0.2   0.52    0.03    0.03    0.01    0.00    0.00    0.00    0.00    0.00    0.00        0      11
 2020 200    46    45    1.0      0  0.021     11      2      0      8     14     14      0     0.0  0.000      0      0  0.982  0.988  0.000  0.000  0.000  0.000  0.000    5.82   0.00   0.00      0      0  186.0   0.03   0.03    0.2   0.52    0.03    0.03    0.01    0.00    0.00    0.00    0.00    0.00    0.00        0      11
 2020 201    47    46    1.1      0  0.021     11      2      0      8     14     14      0     0.0  0.000      0      0  0.964  0.976  0.000  0.000  0.000  0.000  0.000    5.82   0.00   0.00      0      0  186.1   0.03   0.03    0.2   0.54    0.03    0.03    0.01    0.00    0.00    0.00    0.00    0.00    0.00        0      11
 2020 202    48    47    1.1      0  0.021     11      2      0      8     14     14      0     0.0  0.000      0      0  0.971  0.981  0.000  0.000  0.000  0.000  0.000    5.83   0.00   0.00      0      0  186.2   0.03   0.03    0.2   0.57    0.03    0.03    0.01    0.00    0.00    0.00    0.00    0.00    0.00        0      11
 2020 203    49    48    1.1      0  0.021     11      2      0      8     14     14      0     0.0  0.000      0      0  0.971  0.980  0.000  0.000  0.000  0.000  0.000    5.83   0.00   0.00      0      0  186.2   0.03   0.03    0.2   0.59    0.03    0.03    0.01    0.00    0.00    0.00    0.00    0.00    0.00        0      11
 2020 204    50    49    1.1      0  0.021     11      2      0      7     14     14      0     0.0  0.000      0      0  0.976  0.984  0.000  0.000  0.000  0.000  0.000    5.83   0.00   0.00      0      0  186.3   0.03   0.03    0.2   0.59    0.03    0.03    0.01    0.00    0.00    0.00    0.00    0.00    0.00        0      11
 2020 205    51    50    1.1      0  0.021     11      2      0      7     14     14      0     0.0  0.000      0      0  0.979  0.986  0.000  0.000  0.000  0.000  0.000    5.83   0.00   0.00      0      0  186.4   0.03   0.03    0.2   0.59    0.03    0.03    0.01    0.00    0.00    0.00    0.00    0.00    0.00        0      12
 2020 206    52    51    1.1      0  0.021     11      2      0      7     14     14      0     0.0  0.000      0      0  0.982  0.988  0.000  0.000  0.000  0.000  0.000    5.83   0.00   0.00      0      0  186.4   0.03   0.03    0.2   0.59    0.03    0.03    0.01    0.00    0.00    0.00    0.00    0.00    0.00        0      12
 2020 207    53    52    1.1      0  0.021     11      2      0      7     14     14      0     0.0  0.000      0      0  0.983  0.989  0.000  0.000  0.000  0.000  0.000    5.84   0.00   0.00      0      0  186.5   0.03   0.03    0.1   0.59    0.03    0.03    0.01    0.00    0.00    0.00    0.00    0.00    0.00        0      12
 2020 208    54    53    1.1      0  0.021     11      2      0      7     14     14      0     0.0  0.000      0      0  0.979  0.986  0.000  0.000  0.000  0.000  0.000    5.84   0.00   0.00      0      0  186.6   0.03   0.03    0.1   0.59    0.03    0.03    0.01    0.00    0.00    0.00    0.00    0.00    0.00        0      12
 2020 209    55    54    1.1      0  0.021     11      2      0      7     14     14      0     0.0  0.000      0      0  0.940  0.960  0.000  0.000  0.000  0.000  0.000    5.84   0.00   0.00      0      0  186.6   0.03   0.03    0.1   0.61    0.03    0.03    0.01    0.00    0.00    0.00    0.00    0.00    0.00        0      12
 2020 210    56    55    1.1      0  0.021     11      2      0      7     14     14      0     0.0  0.000      0      0  0.940  0.960  0.000  0.000  0.000  0.000  0.000    5.84   0.00   0.00      0      0  186.6   0.03   0.03    0.1   0.63    0.03    0.03    0.01    0.00    0.00    0.00    0.00    0.00    0.00        0      12
 2020 211    57    56    1.1      0  0.021     11      2      0      7     14     14      0     0.0  0.000      0      0  0.968  0.979  0.000  0.000  0.000  0.000  0.000    5.84   0.00   0.00      0      0  186.7   0.03   0.03    0.1   0.66    0.03    0.03    0.01    0.00    0.00    0.00    0.00    0.00    0.00        0      12
 2020 212    58    57    1.1      0  0.021     11      2      0      7     14     14      0     0.0  0.000      0      0  0.961  0.974  0.000  0.000  0.000  0.000  0.000    5.84   0.00   0.00      0      0  186.7   0.03   0.03    0.1   0.67    0.02    0.02    0.01    0.00    0.00    0.00    0.00    0.00    0.00        0      12
 2020 213    59    58    1.1      0  0.021     11      2      0      7     14     14      0     0.0  0.000      0      0  0.967  0.978  0.000  0.000  0.000  0.000  0.000    5.85   0.00   0.00      0      0  186.7   0.03   0.03    0.1   0.69    0.02    0.02    0.01    0.00    0.00    0.00    0.00    0.00    0.00        0      13
 2020 214    60    59    1.1      0  0.021     11      2      0      7     14     14      0     0.0  0.000      0      0  0.968  0.979  0.000  0.000  0.000  0.000  0.000    5.85   0.00   0.00      0      0  186.8   0.03   0.03    0.1   0.71    0.02    0.02    0.01    0.00    0.00    0.00    0.00    0.00    0.00        0      13
 2020 215    61    60    1.1      0  0.021     11      2      0      7     14     14      0     0.0  0.000      0      0  0.963  0.976  0.000  0.000  0.000  0.000  0.000    5.85   0.00   0.00      0      0  186.8   0.03   0.03    0.1   0.73    0.02    0.02    0.01    0.00    0.00    0.00    0.00    0.00    0.00        0      13
 2020 216    62    61    1.1      0  0.021     11      2      0      6     14     14      0     0.0  0.000      0      0  0.965  0.977  0.000  0.000  0.000  0.000  0.000    5.85   0.00   0.00      0      0  186.9   0.03   0.03    0.1   0.75    0.02    0.02    0.01    0.00    0.00    0.00    0.00    0.00    0.00        0      13
 2020 217    63    62    1.1      0  0.021     11      2      0      6     14     14      0     0.0  0.000      0      0  0.967  0.978  0.000  0.000  0.000  0.000  0.000    5.85   0.00   0.00      0      0  186.9   0.03   0.03    0.1   0.77    0.02    0.02    0.01    0.00    0.00    0.00    0.00    0.00    0.00        0      13
 2020 218    64    63    1.1      0  0.021     11      2      0      6     14     14      0     0.0  0.000      0      0  0.965  0.976  0.000  0.000  0.000  0.000  0.000    5.85   0.00   0.00      0      0  186.9   0.03   0.03    0.1   0.79    0.02    0.02    0.01    0.00    0.00    0.00    0.00    0.00    0.00        0      13
 2020 219    65    64    1.2      0  0.021     11      2      0      6     14     14      0     0.0  0.000      0      0  0.959  0.972  0.000  0.000  0.000  0.000  0.000    5.85   0.00   0.00      0      0  187.0   0.03   0.03    0.1   0.82    0.02    0.02    0.01    0.00    0.00    0.00    0.00    0.00    0.00        0      13
 2020 220    66    65    1.2      0  0.021     11      2      0      6     14     14      0     0.0  0.000      0      0  0.970  0.980  0.000  0.000  0.000  0.000  0.000    5.86   0.00   0.00      0      0  187.0   0.03   0.03    0.1   0.84    0.02    0.02    0.01    0.00    0.00    0.00    0.00    0.00    0.00        0      13
 2020 221    67    66    1.2      0  0.021     11      2      0      6     14     14      0     0.0  0.000      0      0  0.974  0.983  0.000  0.000  0.000  0.000  0.000    5.86   0.00   0.00      0      0  187.1   0.03   0.03    0.1   0.84    0.02    0.02    0.01    0.00    0.00    0.00    0.00    0.00    0.00        0      13
 2020 222    68    67    1.2      0  0.021     11      2      0      6     14     14      0     0.0  0.000      0      0  0.977  0.984  0.000  0.000  0.000  0.000  0.000    5.86   0.00   0.00      0      0  187.1   0.03   0.03    0.0   0.84    0.02    0.02    0.01    0.00    0.00    0.00    0.00    0.00    0.00        0      13
 2020 223    69    68    1.2      0  0.021     11      2      0      6     14     14      0     0.0  0.000      0      0  0.971  0.981  0.000  0.000  0.000  0.000  0.000    5.86   0.00   0.00      0      0  187.2   0.03   0.03    0.0   0.86    0.02    0.02    0.01    0.00    0.00    0.00    0.00    0.00    0.00        0      14
 2020 224    70    69    1.2      0  0.021     11      2      0      6     14     14      0     0.0  0.000      0      0  0.976  0.984  0.000  0.000  0.000  0.000  0.000    5.86   0.00   0.00      0      0  187.2   0.03   0.03    0.0   0.88    0.02    0.02    0.01    0.00    0.00    0.00    0.00    0.00    0.00        0      14
 2020 225    71    70    1.2      0  0.021     11      2      0      6     14     14      0     0.0  0.000      0      0  0.974  0.983  0.000  0.000  0.000  0.000  0.000    5.86   0.00   0.00      0      0  187.2   0.03   0.03    0.0   0.91    0.02    0.02    0.01    0.00    0.00    0.00    0.00    0.00    0.00        0      14
 2020 226    72    71    1.2      0  0.021     11      2      0      6     14     14      0     0.0  0.000      0      0  0.975  0.984  0.000  0.000  0.000  0.000  0.000    5.86   0.00   0.00      0      0  187.3   0.03   0.03    0.0   0.91    0.02    0.02    0.01    0.00    0.00    0.00    0.00    0.00    0.00        0      14
 2020 227    73    72    1.2      0  0.021     11      2      0      6     14     14      0     0.0  0.000      0      0  0.975  0.983  0.000  0.000  0.000  0.000  0.000    5.87   0.00   0.00      0      0  187.3   0.03   0.03    0.0   0.93    0.02    0.02    0.01    0.00    0.00    0.00    0.00    0.00    0.00        0      14
 2020 228    74    73    1.2      0  0.021     11      2      0      5     14     14      0     0.0  0.000      0      0  0.975  0.984  0.000  0.000  0.000  0.000  0.000    5.87   0.00   0.00      0      0  187.4   0.03   0.03    0.0   0.95    0.02    0.02    0.01    0.00    0.00    0.00    0.00    0.00    0.00        0      14
 2020 229    75    74    1.2      0  0.021     11      2      0      5     14     14      0     0.0  0.000      0      0  0.981  0.987  0.000  0.000  0.000  0.000  0.000    5.87   0.00   0.00      0      0  187.4   0.03   0.03    0.0   0.95    0.02    0.02    0.01    0.00    0.00    0.00    0.00    0.00    0.00        0      14
 2020 230    76    75    1.2      0  0.021     11      2      0      5     14     14      0     0.0  0.000      0      0  0.973  0.982  0.000  0.000  0.000  0.000  0.000    5.87   0.00   0.00      0      0  187.4   0.03   0.03    0.0   0.97    0.02    0.02    0.01    0.00    0.00    0.00    0.00    0.00    0.00        0      14
 2020 231    77    76    1.2      0  0.021     11      2      0      5     14     14      0     0.0  0.000      0      0  0.976  0.984  0.000  0.000  0.000  0.000  0.000    5.87   0.00   0.00      0      0  187.5   0.03   0.03    0.0   1.00    0.02    0.02    0.01    0.00    0.00    0.00    0.00    0.00    0.00        0      14
 2020 232    78    77    1.2      0  0.021     11      2      0      5     14     14      0     0.0  0.000      0      0  0.974  0.983  0.000  0.000  0.000  0.000  0.000    5.87   0.00   0.00      0      0  187.5   0.03   0.03    0.0   1.02    0.02    0.02    0.01    0.00    0.00    0.00    0.00    0.00    0.00        0      14
 2020 233    79    78    1.2      0  0.021     11      2      0      5     14     14      0     0.0  0.000      0      0  0.978  0.985  0.000  0.000  0.000  0.000  0.000    5.87   0.00   0.00      0      0  187.6   0.03   0.03    0.0   1.02    0.02    0.02    0.01    0.00    0.00    0.00    0.00    0.00    0.00        0      14
 2020 234    80    79    1.2      0  0.021     11      2      0      5     14     14      0     0.0  0.000      0      0  0.978  0.985  0.000  0.000  0.000  0.000  0.000    5.87   0.00   0.00      0      0  187.6   0.03   0.03    0.0   1.04    0.02    0.02    0.01    0.00    0.00    0.00    0.00    0.00    0.00        0      15
 2020 235    81    80    1.2      0  0.021     11      2      0      5     14     14      0     0.0  0.000      0      0  0.980  0.987  0.000  0.000  0.000  0.000  0.000    5.87   0.00   0.00      0      0  187.6   0.03   0.03    0.0   1.04    0.02    0.02    0.01    0.00    0.00    0.00    0.00    0.00    0.00        0      15
 2020 236    82    81    1.2      0  0.021     11      2      0      5     14     14      0     0.0  0.000      0      0  0.983  0.989  0.000  0.000  0.000  0.000  0.000    5.88   0.00   0.00      0      0  187.7   0.03   0.03    0.0   1.04    0.02    0.02    0.01    0.00    0.00    0.00    0.00    0.00    0.00        0      15
 2020 237    83    82    1.2      0  0.021     11      2      0      5     14     14      0     0.0  0.000      0      0  0.987  0.991  0.000  0.000  0.000  0.000  0.000    5.88   0.00   0.00      0      0  187.7   0.03   0.03    0.0   1.04    0.02    0.02    0.01    0.00    0.00    0.00    0.00    0.00    0.00        0      15
 2020 238    84    83    1.2      0  0.021     11      2      0      5     14     14      0     0.0  0.000      0      0  0.988  0.992  0.000  0.000  0.000  0.000  0.000    5.88   0.00   0.00      0      0  187.7   0.03   0.03    0.0   1.04    0.02    0.02    0.01    0.00    0.00    0.00    0.00    0.00    0.00        0      15
 2020 239    85    84    1.2      0  0.021     11      2      0      5     14     14      0     0.0  0.000      0      0  0.988  0.992  0.000  0.000  0.000  0.000  0.000    5.88   0.00   0.00      0      0  187.8   0.03   0.03    0.0   1.04    0.02    0.02    0.01    0.00    0.00    0.00    0.00    0.00    0.00        0      15
 2020 240    86    85    1.2      0  0.021     11      2      0      5     14     14      0     0.0  0.000      0      0  0.988  0.992  0.000  0.000  0.000  0.000  0.000    5.88   0.00   0.00      0      0  187.8   0.03   0.03    0.0   1.04    0.02    0.02    0.01    0.00    0.00    0.00    0.00    0.00    0.00        0      15
 2020 241    87    86    1.2      0  0.021     11      2      0      4     14     14      0     0.0  0.000      0      0  0.989  0.992  0.000  0.000  0.000  0.000  0.000    5.88   0.00   0.00      0      0  187.8   0.03   0.03    0.0   1.04    0.02    0.02    0.01    0.00    0.00    0.00    0.00    0.00    0.00        0      15
 2020 242    88    87    1.2      0  0.021     11      2      0      4     14     14      0     0.0  0.000      0      0  0.951  0.967  0.000  0.000  0.000  0.000  0.000    5.88   0.00   0.00      0      0  187.8   0.03   0.03    0.0   1.06    0.02    0.02    0.01    0.00    0.00    0.00    0.00    0.00    0.00        0      15
 2020 243    89    88    1.2      0  0.021     11      2      0      4     14     14      0     0.0  0.000      0      0  0.975  0.983  0.000  0.000  0.000  0.000  0.000    5.88   0.00   0.00      0      0  187.9   0.03   0.03    0.0   1.08    0.02    0.02    0.01    0.00    0.00    0.00    0.00    0.00    0.00        0      15
 2020 244    90    89    1.2      0  0.021     11      2      0      4     14     14      0     0.0  0.000      0      0  0.974  0.983  0.000  0.000  0.000  0.000  0.000    5.88   0.00   0.00      0      0  187.9   0.03   0.03    0.0   1.10    0.02    0.02    0.01    0.00    0.00    0.00    0.00    0.00    0.00        0      15
 2020 245    91    90    1.3      0  0.021     11      2      0      4     14     14      0     0.0  0.000      0      0  0.961  0.974  0.000  0.000  0.000  0.000  0.000    5.88   0.00   0.00      0      0  187.9   0.03   0.03    0.0   1.12    0.02    0.02    0.01    0.00    0.00    0.00    0.00    0.00    0.00        0      15
 2020 246    92    91    1.3      0  0.021     11      2      0      4     14     14      0     0.0  0.000      0      0  0.976  0.984  0.000  0.000  0.000  0.000  0.000    5.89   0.00   0.00      0      0  187.9   0.03   0.03    0.0   1.14    0.02    0.02    0.01    0.00    0.00    0.00    0.00    0.00    0.00        0      15
 2020 247    93    92    1.4      0  0.022     13      3      0      5     15     15      0     0.0  0.000      0      0  0.000  0.000  0.485  0.000  0.000  0.000  0.000    5.31   0.00   0.00      0      0  174.7   0.03   0.03    0.0   1.15    0.02    0.02    0.01    0.00    0.00    0.00    0.00    0.00    0.00        0      15
 2020 248    94    93    1.6      0  0.023     14      3      0      6     16     16      0     0.0  0.000      0      0  0.000  0.000  0.342  0.000  0.000  0.000  0.000    5.05   0.00   0.00      0      0  170.8   0.04   0.04    0.0   1.17    0.02    0.02    0.01    0.00    0.00    0.00    0.00    0.00    0.00        0      16
 2020 249    95    94    1.9      0  0.025     16      3      0      7     19     19      0     0.0  0.000      0      0  0.000  0.000  0.584  0.000  0.000  0.000  0.000    4.48   0.00   0.00      0      0  158.9   0.05   0.05    0.0   1.19    0.02    0.02    0.01    0.00    0.00    0.00    0.00    0.00    0.00        0      16
 2020 250    96    95    2.1      0  0.027     17      3      0      9     20     20      0     0.0  0.000      0      0  0.000  0.000  0.478  0.000  0.000  0.000  0.000    4.14   0.00   0.00      0      0  158.3   0.06   0.06    0.0   1.21    0.02    0.02    0.01    0.00    0.00    0.00    0.00    0.00    0.00        2      16
 2020 251    97    96    2.4      1  0.030     19      4      0     10     22     22      0     0.0  0.000      0      0  0.000  0.000  0.426  0.000  0.000  0.000  0.000    3.93   0.00   0.00      0      0  159.1   0.07   0.07    0.0   1.23    0.02    0.02    0.01    0.00    0.00    0.00    0.00    0.00    0.00        2      16
 2020 252    98    97    2.4      1  0.030     19      4      0     10     22     22      0     0.0  0.000      0      0  0.000  0.000  0.000  0.000  0.000  0.000  0.000    4.07   0.00   0.00      0      0  159.2   0.08   0.08    0.0   1.23    0.02    0.02    0.01    0.00    0.00    0.00    0.00    0.00    0.00        2      16
 2020 253    99    98    2.4      1  0.030     19      4      0     10     22     22      0     0.0  0.000      0      0  0.000  0.000  0.000  0.000  0.000  0.000  0.000    4.07   0.00   0.00      0      0  159.2   0.08   0.09    0.0   1.23    0.02    0.02    0.01    0.00    0.00    0.00    0.00    0.00    0.00        2      16
 2020 254   100    99    2.5      1  0.031     19      4      0     10     23     23      0     0.0  0.000      0      0  0.000  0.000  0.000  0.000  0.000  0.000  0.000    4.17   0.00   0.00      0      0  159.2   0.08   0.09    0.0   1.23    0.02    0.02    0.01    0.00    0.00    0.00    0.00    0.00    0.00        2      16
 2020 255   101   100    2.6      1  0.032     21      4      0     11     25     25      0     0.0  0.000      0      0  0.000  0.000  0.390  0.000  0.000  0.000  0.000    4.02   0.00   0.00      0      0  154.8   0.08   0.09    0.0   1.24    0.02    0.02    0.01    0.00    0.00    0.00    0.00    0.00    0.00        2      16
 2020 256   102   101    2.8      1  0.033     22      5      0     12     27     27      0     0.0  0.000      0      0  0.000  0.000  0.441  0.000  0.000  0.000  0.000    3.87   0.00   0.00      0      0  151.2   0.09   0.09    0.0   1.25    0.03    0.03    0.01    0.00    0.00    0.00    0.00    0.00    0.00        2      16
 2020 257   103   102    2.9      1  0.035     24      5      0     12     28     28      0     0.0  0.000      0      0  0.000  0.000  0.244  0.000  0.000  0.000  0.000    3.81   0.00   0.00      0      0  150.4   0.09   0.10    0.0   1.26    0.03    0.03    0.01    0.00    0.00    0.01    0.00    0.00    0.00        2      16
 2020 258   104   103    3.1      1  0.037     25      5      0     13     31     31      0     0.0  0.000      0      0  0.000  0.000  0.355  0.000  0.000  0.000  0.000    3.71   0.00   0.00      0      0  148.5   0.10   0.10    0.0   1.28    0.03    0.03    0.01    0.00    0.00    0.01    0.00    0.00    0.00        2      16
 2020 259   105   104    3.2      1  0.040     27      6      0     14     33     33      0     0.0  0.000      0      0  0.000  0.000  0.372  0.000  0.000  0.000  0.000    3.62   0.00   0.00      0      0  146.5   0.11   0.11    0.0   1.29    0.03    0.03    0.01    0.01    0.01    0.01    0.00    0.00    0.00        2      16
 2020 260   106   105    3.4      1  0.042     29      6      0     15     35     35      0     0.0  0.000      0      0  0.000  0.000  0.258  0.000  0.000  0.000  0.000    3.57   0.00   0.00      0      0  145.6   0.11   0.12    0.0   1.30    0.03    0.03    0.01    0.01    0.01    0.01    0.00    0.00    0.00        2      17
 2020 261   107   106    3.6      1  0.044     31      7      0     16     38     38      0     0.0  0.000      0      0  0.000  0.000  0.293  0.000  0.000  0.000  0.000    3.51   0.00   0.00      0      0  144.2   0.12   0.12    0.0   1.31    0.03    0.03    0.01    0.01    0.01    0.01    0.00    0.00    0.00        2      17
 2020 262   108   107    3.7      1  0.047     33      8      0     18     41     41      0     0.0  0.000      0      0  0.000  0.000  0.322  0.000  0.000  0.000  0.000    3.45   0.00   0.00      0      0  142.9   0.12   0.13    0.1   1.33    0.04    0.04    0.02    0.01    0.01    0.01    0.00    0.00    0.00        2      17
 2020 263   109   108    3.9      1  0.050     36      9      0     19     44     44      0     0.0  0.000      0      0  0.000  0.000  0.342  0.000  0.000  0.000  0.000    3.38   0.00   0.00      0      0  141.2   0.13   0.14    0.1   1.34    0.04    0.04    0.02    0.01    0.01    0.01    0.00    0.00    0.00        2      17
 2020 264   110   109    4.1      1  0.054     39     10      0     21     49     49      0     0.0  0.000      0      0  0.000  0.000  0.446  0.000  0.000  0.000  0.000    3.27   0.00   0.00      0      0  139.2   0.14   0.15    0.1   1.36    0.04    0.04    0.02    0.01    0.01    0.01    0.00    0.00    0.00        2      17
 2020 265   111   110    4.3      1  0.057     42     11      0     23     52     52      0     0.0  0.000      0      0  0.000  0.000  0.327  0.000  0.000  0.000  0.000    3.22   0.00   0.00      0      0  137.5   0.15   0.16    0.1   1.37    0.04    0.04    0.02    0.01    0.01    0.01    0.00    0.00    0.00        3      18
 2020 266   112   111    4.5      1  0.061     45     12      0     24     57     57      0     0.0  0.000      0      0  0.000  0.000  0.286  0.000  0.000  0.000  0.000    3.19   0.00   0.00      0      0  135.5   0.15   0.16    0.1   1.39    0.05    0.05    0.02    0.01    0.01    0.01    0.00    0.00    0.00        3      18
 2020 267   113   112    4.7      1  0.065     49     13      0     26     62     62      0     0.0  0.000      0      0  0.000  0.000  0.374  0.000  0.000  0.000  0.000    3.13   0.00   0.00      0      0  133.4   0.16   0.17    0.1   1.41    0.05    0.05    0.02    0.01    0.01    0.01    0.00    0.00    0.00        3      18
 2020 268   114   113    4.9      1  0.069     52     14      0     28     67     67      0     0.0  0.000      0      0  0.000  0.000  0.326  0.000  0.000  0.000  0.000    3.10   0.00   0.00      0      0  131.2   0.17   0.18    0.1   1.42    0.05    0.05    0.02    0.01    0.01    0.01    0.01    0.00    0.00        3      19
 2020 269   115   114    5.1      1  0.072     55     17      0     30     72     72      0     0.0  0.000      0      0  0.000  0.000  0.086  0.000  0.000  0.000  0.000    3.09   0.00   0.00      0      0  130.1   0.18   0.19    0.2   1.44    0.05    0.05    0.03    0.01    0.01    0.02    0.01    0.00    0.00        3      19
 2020 270   116   115    5.3      1  0.076     59     19      0     32     78     78      0     0.0  0.000      0      0  0.000  0.000  0.037  0.000  0.000  0.000  0.000    3.09   0.00   0.00      0      0  129.4   0.19   0.20    0.2   1.46    0.06    0.06    0.03    0.01    0.01    0.02    0.01    0.00    0.00        3      19
 2020 271   117   116    5.3      1  0.079     61     22      0     34     84     84      0     0.0  0.000      0      0  0.000  0.000  0.000  0.000  0.000  0.000  0.000    3.11   0.00   0.00      0      0  128.4   0.20   0.21    0.2   1.47    0.06    0.06    0.03    0.01    0.01    0.02    0.01    0.00    0.00        3      20
 2020 272   118   117    5.3      3  0.080     62     23      0     34     85     85      0     0.0  0.000      0      0  0.000  0.000  0.000  0.000  0.000  0.000  0.000    3.25   0.00   0.00      0      0  128.2   0.20   0.22    0.2   1.47    0.06    0.06    0.03    0.01    0.01    0.02    0.01    0.00    0.00        3      20
 2020 273   119   118    5.3      3  0.081     63     23      0     35     87     87      0     0.0  0.000      0      0  0.000  0.000  0.000  0.000  0.000  0.000  0.000    3.36   0.00   0.00      0      0  127.9   0.21   0.23    0.2   1.48    0.06    0.06    0.03    0.01    0.01    0.02    0.01    0.00    0.00        3      20
 2020 274   120   119    5.3      3  0.083     65     25      0     36     91     91      0     0.0  0.000      0      1  0.000  0.000  0.000  0.000  0.000  0.000  0.000    3.42   0.00   0.00      0      0  126.6   0.22   0.23    0.2   1.50    0.06    0.06    0.03    0.02    0.02    0.02    0.01    0.00    0.00        4      20
 2020 275   121   120    5.3      3  0.083     66     26      0     36     92     92      0     0.0  0.000      0      1  0.000  0.000  0.000  0.000  0.000  0.000  0.000    3.55   0.00   0.00      0      0  126.7   0.22   0.24    0.2   1.50    0.06    0.06    0.03    0.02    0.02    0.02    0.01    0.00    0.00        4      21
 2020 276   122   121    5.3      3  0.084     67     26      0     36     93     93      0     0.0  0.000      0      1  0.000  0.000  0.000  0.000  0.000  0.000  0.000    3.66   0.00   0.00      0      0  126.6   0.22   0.24    0.2   1.51    0.06    0.06    0.03    0.02    0.02    0.02    0.01    0.00    0.00        4      21
 2020 277   123   122    5.3      3  0.085     68     27      0     36     95     96      0     0.0  0.000      0      2  0.000  0.000  0.000  0.000  0.000  0.000  0.000    3.76   0.00   0.00      0      0  126.0   0.22   0.24    0.1   1.52    0.06    0.06    0.03    0.02    0.02    0.02    0.01    0.00    0.00        4      21
 2020 278   124   123    5.3      3  0.086     68     28      0     36     96     96      0     0.0  0.000      0      2  0.000  0.000  0.000  0.000  0.000  0.000  0.000    3.88   0.00   0.00      0      0  126.3   0.22   0.24    0.1   1.53    0.06    0.06    0.03    0.02    0.02    0.02    0.01    0.00    0.00        4      21
 2020 279   125   124    5.3      3  0.088     71     32      0     38    103    104      0     0.0  0.000      1      2  0.000  0.000  0.000  0.000  0.000  0.000  0.000    3.85   0.00   0.01      0      1  123.6   0.22   0.24    0.2   1.54    0.07    0.07    0.03    0.02    0.02    0.02    0.01    0.00    0.00        4      22
 2020 280   126   125    5.3      3  0.089     73     35      0     39    108    109      0     0.0  0.000      1      3  0.000  0.000  0.000  0.000  0.000  0.000  0.000    3.88   0.00   0.01      0      1  121.6   0.22   0.24    0.2   1.55    0.07    0.07    0.03    0.02    0.02    0.02    0.01    0.00    0.00        4      22
 2020 281   127   126    5.3      3  0.090     75     37      0     40    112    114      0     0.0  0.000      1      4  0.000  0.000  0.000  0.000  0.000  0.000  0.000    3.92   0.00   0.01      0      1  120.0   0.22   0.24    0.2   1.57    0.07    0.07    0.03    0.02    0.02    0.02    0.01    0.00    0.00        4      23
 2020 282   128   127    5.3      3  0.091     77     41      0     42    118    120      0     0.0  0.000      2      5  0.000  0.000  0.000  0.000  0.000  0.000  0.000    3.94   0.00   0.01      0      2  117.8   0.22   0.24    0.2   1.58    0.07    0.07    0.03    0.02    0.02    0.02    0.01    0.00    0.00        4      23
 2020 283   129   128    5.3      5  0.091     79     45      0     43    124    126      0     0.0  0.000      2      7  0.000  0.000  0.000  0.000  0.000  0.000  0.000    3.94   0.00   0.02      0      2  115.4   0.22   0.24    0.2   1.60    0.07    0.07    0.03    0.02    0.02    0.02    0.01    0.00    0.00        5      23
 2020 284   130   129    5.3      5  0.092     81     49      0     44    130    133      1     0.9  0.000      3      8  0.000  0.000  0.000  0.000  0.000  0.000  0.000    3.95   0.22   0.02      0      3  113.1   0.22   0.24    0.2   1.61    0.07    0.07    0.04    0.02    0.02    0.02    0.01    0.00    0.00        5      24
 2020 285   131   130    5.3      5  0.092     84     55      0     46    138    142      1     3.8  0.000      4     11  0.000  0.000  0.000  0.000  0.000  0.000  0.000    3.92   1.27   0.03      0      4  109.9   0.22   0.24    0.2   1.63    0.08    0.08    0.04    0.02    0.02    0.03    0.01    0.00    0.00        6      24
 2020 286   132   131    5.3      5  0.092     83     54      0     45    138    141      1     3.8  0.000      4     13  0.000  0.000  0.000  0.000  0.000  0.000  0.000    3.93   1.27   0.03      0      4  110.1   0.22   0.24    0.2   1.63    0.08    0.08    0.04    0.02    0.02    0.03    0.01    0.00    0.00        6      25
 2020 287   133   132    5.3      5  0.092     83     54      0     45    138    142      2     5.6  0.001      4     13  0.000  0.000  0.000  0.000  0.000  0.000  0.000    3.99   2.22   0.03      0      4  110.4   0.22   0.24    0.2   1.63    0.08    0.08    0.04    0.02    0.02    0.03    0.01    0.00    0.00        6      25
 2020 288   134   133    5.3      5  0.092     85     58      0     46    143    148      2     8.9  0.001      5     13  0.000  0.000  0.000  0.000  0.000  0.000  0.000    4.01   3.33   0.03      0      5  108.5   0.22   0.24    0.2   1.64    0.08    0.08    0.04    0.02    0.02    0.03    0.01    0.00    0.00        7      26
 2020 289   135   134    5.3      5  0.092     85     58      0     46    143    149      2    11.0  0.001      5     16  0.000  0.000  0.000  0.000  0.000  0.000  0.000    4.05   3.87   0.04      0      5  108.6   0.22   0.24    0.2   1.64    0.08    0.08    0.04    0.02    0.02    0.03    0.01    0.00    0.00        7      26
 2020 290   136   135    5.3      5  0.092     85     58      0     46    143    149      2    11.0  0.001      5     16  0.000  0.000  0.000  0.000  0.000  0.000  0.000    4.05   3.87   0.04      0      5  108.6   0.22   0.24    0.2   1.64    0.08    0.08    0.04    0.02    0.02    0.03    0.01    0.00    0.00        7      26
