*Soil Inorganic Nitrogen daily output file

*DSSAT Cropping System Model Ver. 4.7.5.035 -develop  JUN 02, 2021 09:26:05

*RUN   1        : 20 IRRIG, light rate,freq CRGRO047 UFGA7801    1
 MODEL          : CRGRO047 - Soybean
 EXPERIMENT     : UFGA7801 SB BRAGG, IRRIGATED & NON-IRRIGATED
 DATA PATH      :
 TREATMENT  1   : 20 IRRIG, light rate,freq CRGRO047
  
!                                                                                                                                      NO3 (ppm) at soil dep. (cm):                                            NH4 (ppm) at soil dep. (cm):                                            Total Inorganic N @dep(ppm):
!                                                                                                                                       0-5    5-15   15-30   30-45   45-60   60-90  90-120 120-150 150-180     0-5    5-15   15-30   30-45   45-60   60-90  90-120 120-150 150-180     0-5    5-15   15-30   30-45   45-60   60-90  90-120 120-150 150-180
@YEAR DOY   DAS  NAPC  NI#M    NIAD    NITD    NHTD   NURTD    NMNC    NITC    NDNC    NIMC    AMLC   NNMNC    NUCM    NLCC    TDNC    NI1D    NI2D    NI3D    NI4D    NI5D    NI6D    NI7D    NI8D    NI9D    NH1D    NH2D    NH3D    NH4D    NH5D    NH6D    NH7D    NH8D    NH9D    NT1D    NT2D    NT3D    NT4D    NT5D    NT6D    NT7D    NT8D    NT9D    
 2020 154     0     0     0    39.3    22.8    16.5     0.0    0.00    0.00    0.00    0.00    0.00    0.00    0.00    0.00    0.00    1.50     1.5     1.5    1.50    1.50    0.60    0.50    0.50    0.50    0.60    0.60    0.60    0.60    0.60    0.60    0.60    0.60    0.60    2.10    2.10    2.10    2.10    2.10    1.20    1.10    1.10    1.10
 2020 155     1     0     0    39.5    30.2     9.3     0.0    0.20    7.39    0.00    0.00    0.00    0.20    0.00    0.00    0.00    1.76     1.8     1.8    1.82    1.80    0.88    0.75    0.75    0.73    0.38    0.36    0.29    0.28    0.30    0.32    0.35    0.35    0.37    2.14    2.13    2.11    2.11    2.11    1.20    1.10    1.10    1.10
 2020 156     2     0     0    39.6    34.2     5.4     0.0    0.41   11.46    0.00    0.00    0.00    0.41    0.00    0.00    0.00    1.89     2.0     2.0    1.97    1.96    1.03    0.90    0.89    0.87    0.26    0.23    0.15    0.14    0.16    0.18    0.20    0.21    0.24    2.15    2.19    2.13    2.12    2.12    1.21    1.10    1.10    1.10
 2020 157     3     0     0    39.8    36.5     3.3     0.0    0.63   13.78    0.00    0.00    0.00    0.63    0.00    0.00    0.00    2.00     2.1     2.1    2.05    2.04    1.11    0.98    0.97    0.95    0.20    0.17    0.09    0.08    0.09    0.10    0.12    0.13    0.15    2.20    2.22    2.14    2.13    2.13    1.21    1.10    1.10    1.10
 2020 158     4     0     0    40.1    37.9     2.1     0.0    0.85   15.22    0.00    0.00    0.00    0.85    0.00    0.00    0.00    2.92     2.1     2.1    2.06    2.00    1.14    1.01    1.01    1.00    0.16    0.13    0.06    0.05    0.06    0.06    0.07    0.08    0.10    3.08    2.24    2.12    2.11    2.06    1.20    1.08    1.09    1.10
 2020 159     5     0     0    40.3    38.8     1.4     0.0    1.08   16.13    0.00    0.00    0.00    1.08    0.00    0.00    0.00    3.01     2.2     2.1    2.09    2.03    1.17    1.04    1.05    1.04    0.15    0.11    0.05    0.04    0.04    0.04    0.04    0.05    0.06    3.16    2.27    2.14    2.13    2.07    1.21    1.08    1.09    1.10
 2020 160     6     0     0    40.5    39.5     1.1     0.0    1.32   16.74    0.00    0.00    0.00    1.32    0.00    0.00    0.00    3.09     2.2     2.1    2.11    2.05    1.19    1.06    1.06    1.06    0.14    0.10    0.04    0.03    0.03    0.03    0.03    0.03    0.04    3.24    2.30    2.15    2.14    2.08    1.21    1.09    1.10    1.10
 2020 161     7     0     0    40.7    39.9     0.8     0.0    1.55   17.21    0.00    0.00    0.00    1.55    0.00    0.00    0.00    0.99     2.3     2.4    2.31    2.15    1.22    1.07    1.08    1.08    0.14    0.09    0.04    0.03    0.03    0.02    0.02    0.02    0.03    1.13    2.40    2.49    2.34    2.18    1.24    1.09    1.10    1.11
 2020 162     8     0     0    40.7    40.0     0.7     0.0    1.78   17.53    0.00    0.00    0.00    1.78    0.00    0.27    0.00    1.19     1.9     2.2    2.20    2.12    1.34    1.11    1.16    1.14    0.15    0.09    0.04    0.03    0.03    0.02    0.01    0.01    0.02    1.33    2.00    2.19    2.22    2.15    1.36    1.13    1.18    1.16
 2020 163     9     0     0    40.8    40.1     0.7     0.0    1.99   17.79    0.00    0.00    0.00    1.99    0.01    0.33    0.00    1.62     1.8     2.1    2.17    2.08    1.38    1.12    1.18    1.16    0.14    0.10    0.04    0.03    0.03    0.02    0.01    0.01    0.01    1.76    1.89    2.09    2.19    2.11    1.39    1.13    1.19    1.17
 2020 164    10     0     0    41.0    40.4     0.7     0.0    2.20   18.03    0.00    0.00    0.00    2.20    0.02    0.33    0.00    2.45     1.9     2.0    2.14    2.03    1.36    1.11    1.17    1.16    0.14    0.10    0.04    0.03    0.03    0.02    0.01    0.01    0.01    2.60    1.97    2.07    2.17    2.06    1.38    1.11    1.18    1.17
 2020 165    11     0     0    41.2    40.6     0.6     0.0    2.41   18.25    0.00    0.00    0.00    2.41    0.02    0.33    0.00    3.39     1.9     2.0    2.11    1.97    1.34    1.09    1.16    1.15    0.15    0.10    0.04    0.03    0.03    0.02    0.01    0.01    0.01    3.54    2.02    2.05    2.14    2.00    1.36    1.09    1.17    1.16
 2020 166    12     0     0    41.4    40.8     0.6     0.0    2.61   18.46    0.00    0.00    0.00    2.61    0.03    0.33    0.00    3.46     1.9     2.0    2.12    1.98    1.35    1.09    1.16    1.16    0.15    0.11    0.04    0.03    0.03    0.02    0.01    0.01    0.01    3.61    2.05    2.07    2.15    2.01    1.36    1.09    1.17    1.16
 2020 167    13     0     0    41.4    41.0     0.4     0.0    2.75   18.67    0.00    0.17    0.00    2.59    0.03    0.33    0.00    2.10     2.4     2.2    2.13    1.99    1.35    1.09    1.16    1.16    0.04    0.00    0.04    0.03    0.03    0.01    0.01    0.01    0.01    2.14    2.45    2.21    2.16    2.02    1.37    1.10    1.17    1.16
 2020 168    14     0     0    41.4    41.0     0.4     0.0    2.90   18.84    0.00    0.32    0.00    2.58    0.03    0.33    0.00    2.92     2.2     2.2    2.14    1.94    1.33    1.07    1.15    1.15    0.00    0.00    0.04    0.03    0.03    0.01    0.01    0.01    0.01    2.92    2.22    2.27    2.17    1.97    1.35    1.08    1.16    1.16
 2020 169    15     0     0    41.5    41.1     0.3     0.0    3.05   19.00    0.00    0.41    0.00    2.65    0.03    0.33    0.00    3.86     2.2     2.2    2.11    1.89    1.32    1.05    1.14    1.15    0.00    0.00    0.04    0.03    0.03    0.01    0.01    0.00    0.01    3.86    2.19    2.24    2.14    1.92    1.33    1.06    1.14    1.15
 2020 170    16     0     0    41.6    41.3     0.3     0.0    3.21   19.16    0.00    0.41    0.00    2.80    0.03    0.33    0.00    3.42     2.6     2.3    2.07    1.84    1.30    1.03    1.12    1.14    0.00    0.00    0.04    0.03    0.03    0.01    0.01    0.00    0.01    3.42    2.65    2.35    2.10    1.87    1.31    1.04    1.13    1.15
 2020 171    17     0     0    41.8    41.4     0.4     0.0    3.39   19.30    0.00    0.41    0.00    2.98    0.04    0.33    0.00    4.04     2.6     2.4    2.03    1.80    1.28    1.01    1.11    1.14    0.03    0.02    0.04    0.03    0.03    0.01    0.01    0.00    0.00    4.07    2.65    2.44    2.06    1.83    1.29    1.02    1.12    1.14
 2020 172    18     0     0    42.0    41.5     0.5     0.0    3.61   19.45    0.00    0.41    0.00    3.20    0.06    0.33    0.00    4.32     2.6     2.4    2.13    1.78    1.27    1.00    1.11    1.13    0.06    0.04    0.04    0.03    0.03    0.01    0.01    0.00    0.00    4.38    2.61    2.42    2.16    1.81    1.28    1.01    1.11    1.14
 2020 173    19     0     0    42.2    41.7     0.5     0.0    3.84   19.60    0.00    0.41    0.00    3.43    0.07    0.33    0.00    5.43     2.5     2.3    2.09    1.74    1.25    0.99    1.09    1.13    0.10    0.08    0.04    0.03    0.03    0.02    0.01    0.00    0.00    5.53    2.60    2.37    2.12    1.77    1.27    0.99    1.10    1.13
 2020 174    20     0     0    42.4    41.8     0.6     0.0    4.09   19.78    0.00    0.41    0.00    3.68    0.08    0.33    0.00    5.49     2.5     2.3    2.10    1.75    1.26    0.99    1.10    1.13    0.13    0.11    0.04    0.03    0.03    0.02    0.01    0.00    0.00    5.62    2.64    2.38    2.13    1.78    1.27    0.99    1.10    1.13
 2020 175    21     0     0    42.7    42.0     0.7     0.0    4.34   19.97    0.00    0.41    0.00    3.93    0.08    0.33    0.00    5.56     2.5     2.3    2.11    1.76    1.26    0.99    1.10    1.13    0.16    0.13    0.04    0.03    0.03    0.02    0.01    0.00    0.00    5.72    2.68    2.39    2.14    1.79    1.28    1.00    1.10    1.14
 2020 176    22     0     0    42.9    42.2     0.7     0.0    4.59   20.16    0.00    0.41    0.00    4.18    0.10    0.33    0.00    5.62     2.6     2.4    2.12    1.77    1.27    0.99    1.10    1.13    0.19    0.16    0.04    0.03    0.03    0.02    0.01    0.00    0.00    5.81    2.72    2.40    2.15    1.80    1.28    1.00    1.10    1.14
 2020 177    23     0     0    43.2    42.4     0.7     0.0    4.86   20.40    0.00    0.41    0.00    4.45    0.10    0.33    0.00    5.70     2.6     2.4    2.13    1.78    1.27    0.99    1.10    1.13    0.20    0.17    0.04    0.03    0.03    0.02    0.01    0.00    0.00    5.91    2.78    2.42    2.16    1.81    1.29    1.00    1.10    1.14
 2020 178    24     0     0    43.5    42.7     0.8     0.0    5.14   20.66    0.00    0.41    0.00    4.73    0.10    0.33    0.00    5.79     2.6     2.4    2.14    1.79    1.28    1.00    1.10    1.13    0.22    0.19    0.04    0.03    0.03    0.02    0.01    0.00    0.00    6.01    2.84    2.43    2.17    1.82    1.29    1.00    1.11    1.14
 2020 179    25     0     0    43.7    43.0     0.8     0.0    5.43   20.93    0.00    0.41    0.00    5.02    0.10    0.33    0.00    5.87     2.7     2.4    2.16    1.80    1.28    1.00    1.10    1.14    0.23    0.20    0.04    0.03    0.03    0.02    0.01    0.00    0.00    6.10    2.90    2.45    2.19    1.83    1.30    1.00    1.11    1.14
 2020 180    26     0     0    44.0    43.2     0.8     0.0    5.72   21.22    0.00    0.41    0.00    5.31    0.10    0.33    0.00    5.96     2.8     2.4    2.17    1.81    1.29    1.00    1.10    1.14    0.24    0.20    0.04    0.03    0.03    0.02    0.00    0.00    0.00    6.20    2.96    2.47    2.20    1.84    1.30    1.00    1.11    1.14
 2020 181    27     0     0    44.3    43.6     0.8     0.0    6.02   21.53    0.00    0.41    0.00    5.62    0.10    0.33    0.00    2.32     4.1     2.8    2.18    1.83    1.29    1.00    1.11    1.14    0.24    0.21    0.04    0.03    0.03    0.01    0.00    0.00    0.00    2.56    4.30    2.83    2.21    1.86    1.31    1.01    1.11    1.14
 2020 182    28     0     0    44.7    43.9     0.8     0.0    6.38   21.90    0.00    0.41    0.00    5.97    0.10    0.33    0.00    3.72     3.4     2.8    2.38    1.87    1.27    0.98    1.09    1.13    0.24    0.21    0.04    0.03    0.03    0.01    0.00    0.00    0.00    3.96    3.63    2.87    2.41    1.89    1.29    0.99    1.10    1.14
 2020 183    29     0     0    45.1    44.3     0.8     0.0    6.74   22.27    0.00    0.41    0.00    6.33    0.10    0.33    0.00    5.12     3.5     2.8    2.32    1.82    1.25    0.97    1.08    1.13    0.23    0.20    0.04    0.03    0.03    0.01    0.00    0.00    0.00    5.35    3.67    2.79    2.35    1.85    1.27    0.97    1.09    1.13
 2020 184    30     0     0    45.4    44.6     0.8     0.0    7.10   22.63    0.00    0.41    0.00    6.69    0.10    0.33    0.00    6.81     3.4     2.7    2.27    1.78    1.23    0.95    1.07    1.12    0.24    0.20    0.04    0.03    0.03    0.01    0.00    0.00    0.00    7.05    3.58    2.70    2.29    1.80    1.25    0.95    1.07    1.13
 2020 185    31     0     0    45.8    45.0     0.8     0.0    7.46   22.97    0.00    0.41    0.00    7.05    0.10    0.33    0.00    6.95     3.5     2.7    2.28    1.79    1.24    0.95    1.07    1.12    0.24    0.20    0.04    0.03    0.03    0.01    0.00    0.00    0.00    7.20    3.66    2.72    2.31    1.82    1.26    0.95    1.07    1.13
 2020 186    32     0     0    46.1    45.3     0.8     0.0    7.80   23.30    0.00    0.41    0.00    7.39    0.11    0.33    0.00    7.09     3.5     2.7    2.29    1.80    1.25    0.95    1.07    1.13    0.25    0.21    0.04    0.03    0.03    0.01    0.00    0.00    0.00    7.34    3.73    2.73    2.32    1.83    1.26    0.96    1.08    1.13
 2020 187    33     0     0    46.4    45.6     0.8     0.0    8.12   23.61    0.00    0.41    0.00    7.71    0.11    0.33    0.00    7.21     3.6     2.7    2.30    1.81    1.25    0.95    1.07    1.13    0.26    0.21    0.04    0.03    0.03    0.01    0.00    0.00    0.00    7.47    3.80    2.75    2.33    1.84    1.27    0.96    1.08    1.13
 2020 188    34     0     0    46.7    45.9     0.8     0.0    8.42   23.89    0.00    0.41    0.00    8.01    0.11    0.33    0.00    7.33     3.6     2.7    2.32    1.82    1.26    0.96    1.08    1.13    0.27    0.22    0.04    0.03    0.03    0.01    0.00    0.00    0.00    7.60    3.86    2.76    2.34    1.85    1.27    0.96    1.08    1.13
 2020 189    35     0     0    47.0    46.2     0.8     0.0    8.71   24.16    0.00    0.41    0.00    8.30    0.11    0.33    0.00    7.44     3.7     2.7    2.33    1.83    1.26    0.96    1.08    1.13    0.28    0.22    0.04    0.03    0.03    0.01    0.00    0.00    0.00    7.71    3.92    2.78    2.35    1.86    1.28    0.96    1.08    1.13
 2020 190    36     0     0    47.3    46.4     0.9     0.0    8.99   24.43    0.00    0.41    0.00    8.58    0.11    0.33    0.00    7.55     3.7     2.8    2.34    1.84    1.27    0.96    1.08    1.13    0.28    0.23    0.04    0.03    0.03    0.02    0.01    0.00    0.00    7.83    3.97    2.79    2.36    1.87    1.28    0.96    1.08    1.14
 2020 191    37     0     0    47.5    46.7     0.9     0.0    9.27   24.71    0.00    0.41    0.00    8.87    0.11    0.33    0.00    7.66     3.8     2.8    2.35    1.86    1.27    0.96    1.08    1.13    0.28    0.23    0.04    0.03    0.03    0.02    0.01    0.00    0.00    7.94    4.03    2.81    2.38    1.88    1.29    0.96    1.08    1.14
 2020 192    38     0     0    47.8    47.0     0.9     0.0    9.55   24.98    0.00    0.41    0.00    9.14    0.11    0.33    0.00    7.76     3.9     2.8    2.36    1.87    1.28    0.96    1.08    1.13    0.29    0.23    0.04    0.03    0.03    0.02    0.01    0.00    0.00    8.05    4.08    2.82    2.39    1.90    1.29    0.97    1.09    1.14
 2020 193    39     0     0    48.1    47.2     0.9     0.0    9.82   25.26    0.00    0.41    0.00    9.42    0.11    0.33    0.00    7.86     3.9     2.8    2.37    1.88    1.28    0.96    1.08    1.14    0.29    0.23    0.04    0.03    0.03    0.01    0.01    0.00    0.00    8.15    4.13    2.83    2.40    1.91    1.30    0.97    1.09    1.14
 2020 194    40     0     0    48.4    47.5     0.9     0.0   10.10   25.54    0.00    0.41    0.00    9.69    0.11    0.33    0.00    7.97     4.0     2.8    2.38    1.89    1.29    0.96    1.08    1.14    0.29    0.23    0.04    0.03    0.03    0.01    0.00    0.00    0.00    8.25    4.18    2.85    2.41    1.92    1.30    0.97    1.09    1.14
 2020 195    41     0     0    48.6    47.8     0.8     0.0   10.36   25.81    0.00    0.41    0.00    9.95    0.11    0.33    0.00    8.07     4.0     2.8    2.40    1.90    1.29    0.97    1.09    1.14    0.29    0.22    0.04    0.03    0.03    0.01    0.00    0.00    0.00    8.36    4.23    2.86    2.42    1.93    1.31    0.97    1.09    1.14
 2020 196    42     0     0    48.9    48.0     0.8     0.0   10.61   26.06    0.00    0.41    0.00   10.21    0.11    0.33    0.00    8.16     4.0     2.8    2.41    1.91    1.30    0.97    1.09    1.14    0.29    0.22    0.04    0.03    0.03    0.01    0.00    0.00    0.00    8.45    4.27    2.88    2.43    1.94    1.31    0.97    1.09    1.15
 2020 197    43     0     0    49.2    48.3     0.9     0.0   10.90   26.34    0.00    0.41    0.00   10.49    0.11    0.33    0.00    8.32     4.1     2.9    2.42    1.92    1.30    0.97    1.09    1.14    0.29    0.22    0.04    0.03    0.03    0.02    0.01    0.00    0.00    8.60    4.31    2.89    2.44    1.95    1.32    0.97    1.09    1.15
 2020 198    44     0     0    49.4    48.6     0.9     0.0   11.18   26.61    0.00    0.41    0.00   10.77    0.12    0.33    0.00    8.46     4.1     2.9    2.43    1.93    1.31    0.97    1.09    1.14    0.29    0.22    0.04    0.03    0.03    0.02    0.01    0.00    0.00    8.75    4.34    2.91    2.45    1.96    1.32    0.98    1.10    1.15
 2020 199    45     0     0    49.7    48.8     0.9     0.0   11.44   26.86    0.00    0.41    0.00   11.03    0.12    0.33    0.00    5.83     5.5     2.9    2.44    1.94    1.31    0.97    1.09    1.15    0.30    0.23    0.04    0.03    0.03    0.02    0.01    0.00    0.00    6.12    5.72    2.92    2.46    1.97    1.33    0.98    1.10    1.15
 2020 200    46     0     0    50.0    49.1     0.9     0.0   11.73   27.14    0.00    0.41    0.00   11.32    0.12    0.33    0.00    5.16     4.5     3.9    2.58    1.89    1.29    0.96    1.08    1.14    0.29    0.23    0.04    0.03    0.03    0.02    0.01    0.00    0.00    5.45    4.70    3.94    2.61    1.92    1.30    0.96    1.08    1.14
 2020 201    47     0     0    50.3    49.4     0.9     0.0   12.02   27.45    0.00    0.41    0.00   11.61    0.12    0.33    0.00    5.99     4.2     3.8    2.78    1.91    1.26    0.94    1.07    1.13    0.29    0.22    0.04    0.03    0.03    0.02    0.01    0.00    0.00    6.28    4.44    3.89    2.81    1.94    1.28    0.94    1.07    1.14
 2020 202    48     0     0    50.5    49.7     0.9     0.0   12.31   27.74    0.00    0.41    0.00   11.91    0.12    0.33    0.00    7.30     4.0     3.6    2.77    2.19    1.24    0.92    1.06    1.13    0.29    0.22    0.04    0.03    0.03    0.02    0.01    0.00    0.00    7.58    4.21    3.61    2.80    2.22    1.26    0.93    1.06    1.13
 2020 203    49     0     0    50.8    50.0     0.9     0.0   12.61   28.05    0.00    0.41    0.00   12.21    0.12    0.33    0.00    9.13     3.9     3.4    2.69    2.13    1.22    0.91    1.04    1.12    0.28    0.22    0.04    0.03    0.03    0.02    0.01    0.00    0.00    9.41    4.17    3.46    2.72    2.16    1.24    0.91    1.05    1.13
 2020 204    50     0     0    51.1    50.3     0.9     0.0   12.90   28.34    0.00    0.41    0.00   12.49    0.12    0.33    0.00   10.99     3.9     3.3    2.61    2.07    1.20    0.89    1.03    1.12    0.29    0.22    0.04    0.03    0.03    0.02    0.01    0.00    0.00   11.27    4.09    3.32    2.63    2.10    1.21    0.90    1.04    1.12
 2020 205    51     0     0    51.4    50.5     0.9     0.0   13.18   28.62    0.00    0.41    0.00   12.77    0.12    0.33    0.00   11.11     3.9     3.3    2.62    2.08    1.20    0.89    1.03    1.12    0.29    0.22    0.04    0.03    0.03    0.02    0.01    0.00    0.00   11.40    4.14    3.34    2.64    2.11    1.22    0.90    1.04    1.12
 2020 206    52     0     0    51.7    50.8     0.9     0.0   13.45   28.88    0.00    0.41    0.00   13.04    0.12    0.33    0.00   11.23     4.0     3.3    2.63    2.09    1.21    0.89    1.03    1.12    0.29    0.22    0.04    0.03    0.03    0.02    0.01    0.00    0.00   11.53    4.19    3.35    2.65    2.12    1.22    0.90    1.04    1.12
 2020 207    53     0     0    51.9    51.1     0.8     0.0   13.72   29.16    0.00    0.41    0.00   13.31    0.12    0.33    0.00   11.35     4.0     3.3    2.64    2.10    1.21    0.90    1.04    1.12    0.29    0.21    0.04    0.03    0.03    0.02    0.01    0.00    0.00   11.65    4.24    3.36    2.67    2.13    1.23    0.90    1.04    1.12
 2020 208    54     0     0    52.2    51.4     0.8     0.0   13.99   29.45    0.00    0.41    0.00   13.58    0.12    0.33    0.00    0.83     5.2     2.6    3.33    3.49    1.85    0.90    1.04    1.12    0.29    0.21    0.04    0.03    0.03    0.02    0.01    0.00    0.00    1.12    5.44    2.62    3.36    3.52    1.87    0.90    1.04    1.13
 2020 209    55     0     0    52.5    51.7     0.8     0.0   14.28   29.76    0.00    0.41    0.00   13.87    0.12    0.33    0.00    2.40     3.7     2.6    3.06    3.33    2.14    1.15    1.03    1.12    0.28    0.20    0.04    0.03    0.03    0.01    0.01    0.00    0.00    2.67    3.94    2.63    3.08    3.36    2.16    1.16    1.03    1.12
 2020 210    56     0     0    52.7    51.9     0.8     0.0   14.57   30.07    0.00    0.41    0.00   14.16    0.13    0.42    0.00    3.19     3.0     2.3    2.54    2.67    1.97    1.36    1.45    1.44    0.27    0.20    0.04    0.03    0.03    0.01    0.01    0.00    0.00    3.46    3.19    2.35    2.57    2.69    1.98    1.37    1.45    1.44
 2020 211    57     0     0    53.0    52.2     0.8     0.0   14.84   30.34    0.00    0.41    0.00   14.43    0.13    0.42    0.00    3.06     2.8     2.3    2.47    2.62    2.02    1.45    1.49    1.43    0.27    0.20    0.04    0.03    0.03    0.01    0.00    0.00    0.00    3.33    3.03    2.37    2.49    2.65    2.04    1.46    1.50    1.44
 2020 212    58     0     0    53.2    52.4     0.8     0.0   15.10   30.59    0.00    0.41    0.00   14.69    0.13    0.42    0.00    3.88     2.6     2.3    2.39    2.54    2.02    1.50    1.52    1.46    0.27    0.20    0.04    0.03    0.03    0.01    0.00    0.00    0.00    4.15    2.81    2.31    2.41    2.57    2.04    1.51    1.53    1.46
 2020 213    59     0     0    52.9    52.1     0.8     0.0   15.35   30.82    0.02    0.41    0.00   14.94    0.13    0.95    0.00    4.82     2.5     2.1    2.22    2.32    1.92    1.50    1.61    1.54    0.27    0.20    0.04    0.03    0.03    0.01    0.00    0.00    0.00    5.09    2.67    2.18    2.25    2.35    1.93    1.50    1.61    1.55
 2020 214    60     0     0    53.1    52.3     0.8     0.0   15.58   31.04    0.02    0.41    0.00   15.17    0.14    0.98    0.00    6.06     2.4     2.1    2.14    2.22    1.89    1.48    1.60    1.56    0.27    0.21    0.04    0.03    0.03    0.01    0.00    0.00    0.00    6.33    2.62    2.15    2.17    2.25    1.90    1.49    1.61    1.56
 2020 215    61     0     0    53.3    52.5     0.8     0.0   15.81   31.26    0.02    0.41    0.00   15.40    0.14    0.98    0.00    7.29     2.4     2.1    2.13    2.19    1.86    1.46    1.58    1.55    0.28    0.21    0.04    0.03    0.03    0.01    0.00    0.00    0.00    7.57    2.57    2.12    2.16    2.22    1.87    1.46    1.59    1.55
 2020 216    62     0     0    53.5    52.7     0.8     0.0   16.04   31.49    0.02    0.41    0.00   15.63    0.14    0.98    0.00    4.89     3.6     2.3    2.17    2.17    1.83    1.43    1.56    1.54    0.28    0.21    0.04    0.03    0.03    0.01    0.00    0.00    0.00    5.17    3.78    2.35    2.19    2.20    1.84    1.43    1.57    1.54
 2020 217    63     0     0    53.8    52.9     0.8     0.0   16.27   31.71    0.02    0.41    0.00   15.86    0.14    0.98    0.00    5.23     3.4     2.5    2.24    2.21    1.80    1.40    1.54    1.53    0.28    0.21    0.04    0.03    0.03    0.01    0.00    0.00    0.00    5.51    3.58    2.55    2.27    2.24    1.81    1.41    1.55    1.53
 2020 218    64     0     0    54.0    53.2     0.8     0.0   16.50   31.94    0.02    0.41    0.00   16.09    0.14    0.98    0.00    5.98     3.1     2.5    2.24    2.18    1.81    1.42    1.57    1.52    0.28    0.21    0.04    0.03    0.03    0.01    0.00    0.00    0.00    6.26    3.29    2.51    2.27    2.21    1.83    1.43    1.57    1.53
 2020 219    65     0     0    54.2    53.4     0.8     0.0   16.73   32.17    0.02    0.41    0.00   16.32    0.15    0.98    0.00    3.60     3.2     3.0    2.52    2.28    1.82    1.40    1.55    1.51    0.28    0.21    0.04    0.03    0.03    0.01    0.00    0.00    0.00    3.88    3.42    3.00    2.55    2.31    1.83    1.40    1.55    1.52
 2020 220    66     0     0    54.4    53.6     0.8     0.0   16.95   32.39    0.02    0.41    0.00   16.54    0.15    1.01    0.00    4.19     2.8     2.6    2.42    2.26    1.84    1.46    1.64    1.62    0.28    0.21    0.04    0.03    0.03    0.01    0.00    0.00    0.00    4.47    3.03    2.63    2.45    2.29    1.85    1.47    1.65    1.63
 2020 221    67     0     0    54.6    53.8     0.8     0.0   17.18   32.63    0.03    0.41    0.00   16.78    0.15    1.01    0.00    5.18     2.7     2.5    2.38    2.24    1.84    1.46    1.65    1.62    0.27    0.20    0.04    0.03    0.03    0.01    0.00    0.00    0.00    5.45    2.90    2.56    2.41    2.27    1.85    1.46    1.65    1.63
 2020 222    68     0     0    54.9    54.1     0.8     0.0   17.43   32.89    0.03    0.41    0.00   17.02    0.15    1.01    0.00    6.50     2.7     2.5    2.35    2.21    1.81    1.43    1.63    1.61    0.27    0.20    0.04    0.03    0.03    0.01    0.00    0.00    0.00    6.77    2.90    2.51    2.38    2.24    1.82    1.44    1.63    1.62
 2020 223    69     0     0    55.1    54.3     0.8     0.0   17.69   33.16    0.03    0.41    0.00   17.28    0.15    1.01    0.00    7.85     2.7     2.4    2.31    2.18    1.78    1.41    1.61    1.60    0.27    0.19    0.04    0.03    0.03    0.01    0.00    0.00    0.00    8.12    2.88    2.46    2.34    2.21    1.79    1.41    1.61    1.61
 2020 224    70     0     0    55.4    54.6     0.8     0.0   17.94   33.44    0.03    0.41    0.00   17.54    0.15    1.01    0.00    7.96     2.7     2.4    2.32    2.19    1.78    1.41    1.61    1.61    0.26    0.19    0.04    0.03    0.03    0.01    0.00    0.00    0.00    8.22    2.92    2.47    2.35    2.22    1.80    1.41    1.61    1.61
 2020 225    71     0     0    55.6    54.9     0.8     0.0   18.20   33.72    0.03    0.41    0.00   17.79    0.15    1.01    0.00    8.06     2.8     2.4    2.33    2.21    1.79    1.41    1.61    1.61    0.26    0.18    0.04    0.03    0.03    0.01    0.00    0.00    0.00    8.32    2.97    2.48    2.36    2.23    1.80    1.42    1.61    1.61
 2020 226    72     0     0    55.9    55.1     0.7     0.0   18.46   33.98    0.03    0.41    0.00   18.05    0.15    1.01    0.00    8.16     2.8     2.5    2.34    2.22    1.80    1.41    1.61    1.61    0.26    0.17    0.04    0.03    0.03    0.01    0.00    0.00    0.00    8.42    3.01    2.50    2.37    2.25    1.81    1.42    1.62    1.61
 2020 227    73     0     0    56.1    55.4     0.7     0.0   18.70   34.23    0.03    0.41    0.00   18.29    0.15    1.01    0.00    8.25     2.9     2.5    2.36    2.23    1.80    1.41    1.61    1.61    0.26    0.17    0.04    0.03    0.03    0.01    0.00    0.00    0.00    8.51    3.05    2.51    2.38    2.26    1.81    1.42    1.62    1.62
 2020 228    74     0     0    56.4    55.6     0.7     0.0   18.93   34.47    0.03    0.41    0.00   18.53    0.15    1.01    0.00    8.34     2.9     2.5    2.37    2.24    1.81    1.42    1.62    1.61    0.26    0.17    0.04    0.03    0.03    0.01    0.00    0.00    0.00    8.59    3.09    2.53    2.39    2.27    1.82    1.42    1.62    1.62
 2020 229    75     0     0    56.6    55.8     0.7     0.0   19.16   34.69    0.03    0.41    0.00   18.75    0.15    1.01    0.00    7.40     3.5     2.5    2.38    2.25    1.81    1.42    1.62    1.61    0.26    0.17    0.04    0.03    0.03    0.01    0.00    0.00    0.00    7.66    3.62    2.54    2.40    2.28    1.82    1.42    1.62    1.62
 2020 230    76     0     0    56.8    56.1     0.7     0.0   19.41   34.94    0.03    0.41    0.00   19.00    0.15    1.01    0.00    3.30     4.2     3.1    2.58    2.32    1.81    1.42    1.62    1.62    0.25    0.17    0.04    0.03    0.03    0.01    0.00    0.00    0.00    3.55    4.35    3.18    2.60    2.34    1.83    1.42    1.62    1.62
 2020 231    77     0     0    57.1    56.3     0.7     0.0   19.66   35.20    0.03    0.41    0.00   19.25    0.15    1.01    0.00    4.44     3.5     2.9    2.59    2.37    1.89    1.47    1.66    1.61    0.24    0.17    0.04    0.03    0.03    0.01    0.00    0.00    0.00    4.68    3.67    2.98    2.62    2.40    1.90    1.47    1.66    1.62
 2020 232    78     0     0    57.3    56.6     0.7     0.0   19.91   35.46    0.03    0.41    0.00   19.50    0.15    1.01    0.00    5.77     3.3     2.9    2.60    2.38    1.87    1.44    1.64    1.60    0.24    0.17    0.04    0.03    0.03    0.01    0.00    0.00    0.00    6.01    3.51    2.92    2.63    2.41    1.88    1.45    1.64    1.61
 2020 233    79     0     0    57.6    56.9     0.7     0.0   20.16   35.71    0.03    0.41    0.00   19.75    0.15    1.01    0.00    7.41     3.3     2.8    2.55    2.34    1.84    1.42    1.62    1.59    0.23    0.16    0.04    0.03    0.03    0.01    0.00    0.00    0.00    7.64    3.44    2.84    2.58    2.37    1.85    1.42    1.62    1.60
 2020 234    80     0     0    57.8    57.1     0.7     0.0   20.40   35.96    0.03    0.41    0.00   19.99    0.16    1.01    0.00    7.52     3.3     2.8    2.56    2.35    1.84    1.42    1.62    1.60    0.23    0.16    0.04    0.03    0.03    0.01    0.00    0.00    0.00    7.75    3.47    2.85    2.59    2.38    1.85    1.42    1.63    1.60
 2020 235    81     0     0    58.1    57.3     0.7     0.0   20.64   36.20    0.03    0.41    0.00   20.24    0.16    1.01    0.00    3.20     4.3     3.3    2.74    2.43    1.85    1.42    1.62    1.60    0.24    0.16    0.04    0.03    0.03    0.01    0.00    0.00    0.00    3.44    4.48    3.38    2.77    2.46    1.86    1.42    1.63    1.60
 2020 236    82     0     0    58.3    57.6     0.7     0.0   20.89   36.45    0.03    0.41    0.00   20.48    0.16    1.01    0.00    4.45     3.6     3.1    2.75    2.46    1.91    1.47    1.67    1.60    0.23    0.16    0.04    0.03    0.03    0.01    0.00    0.00    0.00    4.68    3.78    3.17    2.78    2.48    1.92    1.47    1.67    1.61
 2020 237    83     0     0    58.5    57.8     0.7     0.0   21.13   36.70    0.03    0.41    0.00   20.73    0.16    1.01    0.00    3.64     3.4     3.4    2.98    2.53    1.90    1.44    1.65    1.60    0.23    0.16    0.04    0.03    0.03    0.01    0.00    0.00    0.00    3.87    3.58    3.48    3.01    2.56    1.92    1.45    1.65    1.60
 2020 238    84     0     0    58.8    58.1     0.7     0.0   21.38   36.96    0.03    0.41    0.00   20.97    0.16    1.01    0.00    4.38     3.1     3.0    2.86    2.55    1.95    1.51    1.72    1.69    0.22    0.15    0.04    0.03    0.03    0.01    0.00    0.00    0.00    4.60    3.23    3.08    2.89    2.58    1.97    1.51    1.72    1.69
 2020 239    85     0     0    59.0    58.4     0.7     0.0   21.64   37.23    0.03    0.41    0.00   21.23    0.16    1.01    0.00    5.50     3.0     3.0    2.81    2.54    1.96    1.50    1.71    1.68    0.21    0.15    0.04    0.03    0.03    0.01    0.00    0.00    0.00    5.71    3.17    2.99    2.84    2.57    1.97    1.51    1.72    1.68
 2020 240    86     0     0    59.3    58.6     0.7     0.0   21.90   37.50    0.03    0.41    0.00   21.49    0.16    1.01    0.00    4.24     3.5     3.2    2.91    2.58    1.92    1.48    1.69    1.67    0.21    0.15    0.04    0.03    0.03    0.01    0.00    0.00    0.00    4.44    3.70    3.22    2.94    2.60    1.94    1.48    1.70    1.67
 2020 241    87     0     0    59.6    58.9     0.7     0.0   22.16   37.77    0.03    0.41    0.00   21.75    0.16    1.01    0.00    1.92     2.3     2.3    3.11    3.64    2.40    1.62    1.73    1.66    0.20    0.14    0.04    0.03    0.03    0.01    0.00    0.00    0.00    2.13    2.46    2.30    3.13    3.67    2.41    1.62    1.74    1.67
 2020 242    88     0     0    59.8    59.2     0.7     0.0   22.41   38.03    0.03    0.41    0.00   22.01    0.16    1.01    0.00    1.62     1.7     2.1    2.86    3.40    2.60    1.86    1.85    1.71    0.20    0.14    0.04    0.03    0.03    0.01    0.00    0.00    0.00    1.81    1.84    2.17    2.89    3.42    2.61    1.86    1.86    1.71
 2020 243    89     0     0    56.8    56.2     0.7     0.0   22.65   38.26    0.03    0.41    0.00   22.24    0.16    4.21    0.00    1.70     1.4     1.7    2.18    2.50    2.13    1.82    2.14    2.17    0.20    0.15    0.04    0.03    0.03    0.01    0.00    0.00    0.00    1.90    1.58    1.74    2.21    2.53    2.14    1.83    2.14    2.18
 2020 244    90     0     0    57.1    56.4     0.7     0.0   22.89   38.50    0.03    0.41    0.00   22.48    0.16    4.21    0.00    1.53     1.4     1.6    2.08    2.44    2.15    1.88    2.20    2.22    0.20    0.15    0.04    0.03    0.03    0.01    0.00    0.00    0.00    1.73    1.58    1.68    2.10    2.47    2.16    1.89    2.20    2.22
 2020 245    91     0     0    55.4    54.7     0.7     0.0   23.12   38.72    0.05    0.41    0.00   22.71    0.16    6.08    0.00    1.90     1.3     1.4    1.78    2.07    1.92    1.79    2.30    2.42    0.20    0.15    0.04    0.03    0.03    0.01    0.00    0.00    0.00    2.11    1.46    1.47    1.81    2.10    1.93    1.79    2.30    2.43
 2020 246    92     0     0    55.6    54.9     0.7     0.0   23.32   38.91    0.06    0.41    0.00   22.92    0.17    6.08    0.00    1.45     1.4     1.5    1.78    2.06    1.92    1.80    2.31    2.46    0.21    0.15    0.04    0.03    0.03    0.01    0.00    0.00    0.00    1.66    1.52    1.52    1.81    2.09    1.93    1.81    2.32    2.46
 2020 247    93     0     0    54.7    54.0     0.7     0.0   23.52   39.09    0.08    0.41    0.00   23.12    0.17    7.19    0.00    1.79     1.3     1.3    1.62    1.87    1.80    1.76    2.35    2.56    0.21    0.15    0.04    0.03    0.03    0.01    0.00    0.00    0.01    2.00    1.41    1.39    1.64    1.89    1.81    1.77    2.36    2.57
 2020 248    94     0     0    54.3    53.6     0.7     0.0   23.73   39.28    0.09    0.41    0.00   23.32    0.19    7.70    0.00    1.63     1.2     1.3    1.54    1.78    1.78    1.76    2.38    2.62    0.21    0.15    0.04    0.03    0.03    0.01    0.00    0.00    0.01    1.84    1.37    1.33    1.57    1.81    1.79    1.77    2.38    2.62
 2020 249    95     0     0    54.3    53.6     0.7     0.0   23.93   39.47    0.09    0.41    0.00   23.52    0.21    7.91    0.00    1.55     1.2     1.3    1.50    1.76    1.77    1.76    2.39    2.64    0.21    0.15    0.04    0.03    0.03    0.01    0.00    0.00    0.01    1.76    1.37    1.31    1.53    1.79    1.79    1.77    2.40    2.65
 2020 250    96     0     0    54.5    53.7     0.7     0.0   24.14   39.68    0.10    0.41    0.00   23.73    0.24    7.91    0.00    0.82     1.3     1.4    1.56    1.78    1.77    1.75    2.41    2.68    0.21    0.15    0.04    0.03    0.03    0.01    0.00    0.00    0.01    1.04    1.43    1.40    1.59    1.81    1.79    1.76    2.41    2.68
 2020 251    97     0     0    53.8    53.0     0.7     0.0   24.37   39.91    0.11    0.41    0.00   23.96    0.27    8.79    0.00    0.70     1.1     1.2    1.45    1.67    1.73    1.74    2.44    2.76    0.22    0.15    0.04    0.03    0.03    0.01    0.00    0.00    0.01    0.92    1.24    1.27    1.48    1.70    1.74    1.74    2.45    2.77
 2020 252    98     0     0    53.8    53.1     0.7     0.0   24.60   40.16    0.12    0.41    0.00   24.19    0.30    8.92    0.00    0.40     0.9     1.3    1.52    1.73    1.74    1.74    2.45    2.78    0.21    0.15    0.04    0.03    0.03    0.01    0.00    0.00    0.01    0.61    1.08    1.30    1.55    1.76    1.75    1.74    2.46    2.78
 2020 253    99     0     0    53.8    53.1     0.7     0.0   24.80   40.35    0.13    0.41    0.00   24.40    0.33    9.11    0.00    0.12     0.4     0.8    1.48    1.97    1.88    1.82    2.51    2.81    0.22    0.15    0.04    0.03    0.03    0.01    0.00    0.00    0.01    0.34    0.54    0.85    1.50    2.00    1.89    1.83    2.51    2.82
 2020 254   100     0     0    53.6    52.9     0.7     0.0   24.97   40.48    0.16    0.41    0.00   24.56    0.33    9.43    0.00    0.13     0.3     0.7    1.22    1.77    1.87    1.91    2.61    2.89    0.23    0.15    0.04    0.03    0.03    0.01    0.00    0.00    0.01    0.35    0.49    0.71    1.25    1.80    1.88    1.91    2.61    2.89
 2020 255   101     0     0    49.1    48.4     0.7     0.0   25.10   40.60    0.19    0.41    0.00   24.69    0.35   13.98    0.00    0.13     0.3     0.5    0.92    1.28    1.45    1.61    2.49    3.13    0.23    0.16    0.05    0.03    0.03    0.01    0.00    0.00    0.01    0.36    0.44    0.57    0.95    1.31    1.47    1.61    2.50    3.13
 2020 256   102     0     0    48.9    48.2     0.7     0.0   25.21   40.70    0.20    0.41    0.00   24.80    0.37   14.26    0.00    0.11     0.3     0.5    0.83    1.20    1.42    1.62    2.53    3.17    0.23    0.16    0.05    0.03    0.03    0.01    0.00    0.00    0.01    0.34    0.42    0.52    0.86    1.23    1.43    1.62    2.53    3.18
 2020 257   103     0     0    46.1    45.3     0.8     0.0   25.31   40.79    0.21    0.41    0.00   24.90    0.38   17.17    0.00    0.10     0.2     0.4    0.68    0.97    1.20    1.43    2.41    3.27    0.23    0.16    0.05    0.03    0.03    0.01    0.00    0.00    0.01    0.33    0.39    0.45    0.71    1.00    1.22    1.43    2.42    3.28
 2020 258   104     0     0    44.9    44.1     0.8     0.0   25.43   40.90    0.22    0.41    0.00   25.02    0.40   18.49    0.00    0.11     0.2     0.4    0.60    0.86    1.10    1.33    2.37    3.33    0.23    0.16    0.05    0.03    0.03    0.01    0.00    0.00    0.01    0.35    0.38    0.41    0.63    0.89    1.12    1.34    2.37    3.33
 2020 259   105     0     0    44.8    44.0     0.8     0.0   25.59   41.05    0.22    0.41    0.00   25.18    0.42   18.66    0.00    0.11     0.2     0.4    0.60    0.85    1.09    1.33    2.36    3.34    0.23    0.16    0.05    0.03    0.03    0.01    0.00    0.00    0.01    0.34    0.39    0.42    0.63    0.88    1.11    1.34    2.37    3.35
 2020 260   106     0     0    43.8    43.0     0.8     0.0   25.77   41.23    0.23    0.41    0.00   25.36    0.44   19.85    0.00    0.12     0.2     0.3    0.53    0.76    1.01    1.27    2.32    3.38    0.24    0.16    0.05    0.03    0.03    0.01    0.00    0.00    0.01    0.36    0.38    0.38    0.56    0.79    1.02    1.27    2.33    3.39
 2020 261   107     0     0    43.4    42.6     0.8     0.0   25.96   41.43    0.24    0.41    0.00   25.55    0.46   20.40    0.00    0.16     0.2     0.3    0.50    0.72    0.98    1.24    2.30    3.40    0.23    0.16    0.05    0.03    0.03    0.01    0.00    0.00    0.01    0.39    0.40    0.37    0.54    0.75    0.99    1.24    2.31    3.41
 2020 262   108     0     0    43.4    42.6     0.8     0.0   26.15   41.62    0.24    0.41    0.00   25.74    0.48   20.57    0.00    0.15     0.3     0.3    0.51    0.73    0.97    1.23    2.29    3.40    0.23    0.16    0.05    0.03    0.03    0.01    0.00    0.00    0.01    0.37    0.42    0.39    0.54    0.76    0.99    1.23    2.30    3.41
 2020 263   109     0     0    42.6    41.9     0.8     0.0   26.33   41.81    0.25    0.41    0.00   25.92    0.50   21.50    0.00    0.15     0.2     0.3    0.47    0.67    0.92    1.18    2.26    3.43    0.23    0.16    0.05    0.03    0.03    0.01    0.00    0.00    0.01    0.39    0.40    0.36    0.50    0.70    0.93    1.18    2.26    3.44
 2020 264   110     0     0    42.4    41.6     0.8     0.0   26.52   41.99    0.25    0.41    0.00   26.11    0.53   21.89    0.00    0.18     0.3     0.3    0.46    0.65    0.90    1.16    2.24    3.44    0.23    0.16    0.05    0.03    0.03    0.01    0.00    0.00    0.01    0.41    0.42    0.36    0.49    0.68    0.91    1.16    2.25    3.45
 2020 265   111     0     0    42.4    41.6     0.7     0.0   26.71   42.19    0.25    0.41    0.00   26.30    0.55   22.05    0.00    0.16     0.3     0.3    0.47    0.66    0.89    1.15    2.23    3.44    0.22    0.16    0.05    0.03    0.03    0.01    0.00    0.00    0.01    0.39    0.43    0.38    0.50    0.69    0.91    1.15    2.24    3.45
 2020 266   112     0     0    41.6    40.9     0.7     0.0   26.90   42.38    0.26    0.41    0.00   26.49    0.58   22.98    0.00    0.17     0.3     0.3    0.44    0.61    0.84    1.10    2.19    3.46    0.23    0.15    0.05    0.03    0.03    0.01    0.00    0.00    0.01    0.40    0.42    0.36    0.47    0.64    0.86    1.11    2.19    3.46
 2020 267   113     0     0    41.4    40.6     0.7     0.0   27.09   42.58    0.26    0.41    0.00   26.69    0.60   23.37    0.00    0.19     0.3     0.3    0.43    0.59    0.83    1.08    2.17    3.46    0.22    0.15    0.05    0.03    0.03    0.01    0.00    0.00    0.01    0.42    0.43    0.36    0.46    0.62    0.84    1.09    2.18    3.47
 2020 268   114     0     0    41.4    40.6     0.7     0.0   27.29   42.79    0.27    0.41    0.00   26.88    0.63   23.54    0.00    0.23     0.3     0.3    0.43    0.59    0.82    1.07    2.16    3.47    0.22    0.15    0.04    0.03    0.03    0.01    0.00    0.00    0.01    0.45    0.46    0.37    0.46    0.62    0.83    1.08    2.17    3.47
 2020 269   115     0     0    41.5    40.8     0.7     0.0   27.50   43.01    0.27    0.41    0.00   27.09    0.66   23.54    0.00    0.20     0.3     0.3    0.45    0.60    0.83    1.07    2.16    3.47    0.21    0.15    0.04    0.03    0.03    0.01    0.00    0.00    0.01    0.41    0.49    0.39    0.48    0.63    0.84    1.08    2.17    3.47
 2020 270   116     0     0    41.0    40.3     0.7     0.0   27.71   43.24    0.28    0.41    0.00   27.31    0.70   24.25    0.00    0.22     0.3     0.3    0.43    0.58    0.80    1.04    2.13    3.48    0.21    0.15    0.04    0.03    0.03    0.01    0.00    0.00    0.01    0.43    0.48    0.38    0.46    0.61    0.81    1.04    2.13    3.48
 2020 271   117     0     0    40.9    40.2     0.7     0.0   27.94   43.47    0.28    0.41    0.00   27.53    0.73   24.53    0.00    0.25     0.3     0.4    0.43    0.57    0.79    1.02    2.11    3.48    0.20    0.14    0.04    0.03    0.03    0.01    0.00    0.00    0.01    0.45    0.49    0.39    0.46    0.60    0.80    1.03    2.12    3.49
 2020 272   118     0     0    40.9    40.2     0.7     0.0   28.15   43.69    0.29    0.41    0.00   27.74    0.77   24.66    0.00    0.28     0.4     0.4    0.44    0.58    0.78    1.02    2.11    3.48    0.20    0.14    0.04    0.03    0.03    0.01    0.00    0.00    0.01    0.48    0.52    0.41    0.47    0.61    0.80    1.02    2.11    3.49
 2020 273   119     0     0    41.0    40.3     0.7     0.0   28.35   43.88    0.29    0.41    0.00   27.94    0.81   24.71    0.00    0.32     0.4     0.4    0.45    0.58    0.78    1.02    2.11    3.48    0.20    0.14    0.04    0.03    0.03    0.01    0.00    0.00    0.01    0.52    0.55    0.42    0.48    0.61    0.79    1.02    2.11    3.49
 2020 274   120     0     0    41.2    40.5     0.7     0.0   28.53   44.06    0.30    0.41    0.00   28.13    0.85   24.73    0.00    0.35     0.4     0.4    0.46    0.59    0.78    1.01    2.10    3.48    0.20    0.14    0.04    0.03    0.03    0.01    0.00    0.00    0.01    0.55    0.58    0.43    0.49    0.62    0.79    1.02    2.11    3.49
 2020 275   121     0     0    41.3    40.6     0.7     0.0   28.71   44.22    0.30    0.41    0.00   28.30    0.89   24.73    0.00    0.39     0.5     0.4    0.46    0.59    0.78    1.01    2.10    3.48    0.20    0.15    0.04    0.03    0.03    0.01    0.00    0.00    0.01    0.59    0.61    0.44    0.50    0.63    0.79    1.02    2.11    3.49
 2020 276   122     0     0    41.4    40.7     0.7     0.0   28.86   44.36    0.30    0.41    0.00   28.45    0.93   24.73    0.00    0.42     0.5     0.4    0.47    0.60    0.78    1.01    2.10    3.48    0.21    0.15    0.05    0.03    0.03    0.01    0.00    0.00    0.01    0.62    0.64    0.46    0.50    0.63    0.79    1.02    2.11    3.49
 2020 277   123     0     0    41.5    40.8     0.7     0.0   29.01   44.50    0.31    0.41    0.00   28.61    0.97   24.73    0.00    0.45     0.5     0.4    0.48    0.60    0.78    1.01    2.10    3.48    0.21    0.15    0.05    0.03    0.03    0.01    0.00    0.00    0.01    0.66    0.67    0.47    0.51    0.64    0.79    1.02    2.11    3.49
 2020 278   124     0     0    41.6    40.9     0.7     0.0   29.17   44.65    0.31    0.41    0.00   28.76    1.02   24.73    0.00    0.48     0.5     0.4    0.49    0.61    0.78    1.01    2.10    3.48    0.21    0.15    0.05    0.03    0.03    0.01    0.00    0.00    0.01    0.69    0.68    0.48    0.52    0.64    0.79    1.02    2.11    3.49
 2020 279   125     0     0    41.7    40.9     0.7     0.0   29.32   44.80    0.31    0.41    0.00   28.92    1.08   24.73    0.00    0.52     0.5     0.4    0.49    0.61    0.78    1.01    2.10    3.48    0.21    0.15    0.05    0.03    0.03    0.01    0.00    0.00    0.01    0.73    0.70    0.49    0.53    0.65    0.79    1.02    2.11    3.49
 2020 280   126     0     0    41.8    41.0     0.8     0.0   29.48   44.95    0.32    0.41    0.00   29.08    1.14   24.73    0.00    0.54     0.6     0.4    0.50    0.62    0.78    1.01    2.10    3.48    0.21    0.15    0.05    0.03    0.03    0.01    0.00    0.00    0.01    0.75    0.72    0.50    0.54    0.65    0.79    1.02    2.11    3.49
 2020 281   127     0     0    41.9    41.1     0.8     0.0   29.66   45.13    0.32    0.41    0.00   29.25    1.20   24.73    0.00    0.57     0.6     0.5    0.51    0.63    0.78    1.01    2.10    3.48    0.21    0.15    0.05    0.03    0.03    0.01    0.00    0.00    0.01    0.78    0.74    0.51    0.54    0.66    0.79    1.01    2.11    3.49
 2020 282   128     0     0    42.0    41.2     0.7     0.0   29.83   45.31    0.33    0.41    0.00   29.43    1.27   24.73    0.00    0.60     0.6     0.5    0.52    0.63    0.78    1.01    2.10    3.48    0.21    0.15    0.05    0.03    0.03    0.01    0.00    0.00    0.01    0.81    0.76    0.52    0.55    0.67    0.79    1.01    2.10    3.49
 2020 283   129     0     0    42.1    41.4     0.7     0.0   30.03   45.52    0.33    0.41    0.00   29.62    1.34   24.73    0.00    0.63     0.6     0.5    0.53    0.64    0.78    1.01    2.10    3.48    0.21    0.15    0.05    0.03    0.03    0.01    0.00    0.00    0.01    0.84    0.78    0.53    0.56    0.67    0.79    1.01    2.10    3.49
 2020 284   130     0     0    42.2    41.5     0.7     0.0   30.23   45.74    0.33    0.41    0.00   29.83    1.42   24.73    0.00    0.67     0.7     0.5    0.54    0.65    0.78    1.01    2.10    3.48    0.20    0.15    0.05    0.03    0.03    0.01    0.00    0.00    0.01    0.87    0.81    0.55    0.57    0.68    0.79    1.01    2.10    3.49
 2020 285   131     0     0    42.4    41.7     0.7     0.0   30.44   45.96    0.34    0.41    0.00   30.03    1.50   24.73    0.00    0.71     0.7     0.5    0.54    0.66    0.78    1.01    2.10    3.48    0.20    0.14    0.04    0.03    0.03    0.01    0.00    0.00    0.01    0.91    0.83    0.56    0.58    0.69    0.79    1.01    2.10    3.49
 2020 286   132     0     0    42.5    41.8     0.7     0.0   30.65   46.18    0.34    0.41    0.00   30.25    1.58   24.73    0.00    0.75     0.7     0.5    0.55    0.67    0.78    1.01    2.10    3.48    0.19    0.14    0.04    0.03    0.03    0.01    0.00    0.00    0.01    0.94    0.86    0.57    0.58    0.70    0.80    1.01    2.10    3.49
 2020 287   133     0     0    42.7    42.0     0.7     0.0   30.85   46.38    0.35    0.41    0.00   30.44    1.59   24.73    0.00    0.79     0.8     0.5    0.56    0.68    0.79    1.01    2.10    3.49    0.19    0.14    0.04    0.03    0.03    0.01    0.00    0.00    0.01    0.98    0.89    0.59    0.59    0.71    0.80    1.01    2.10    3.49
 2020 288   134     0     0    42.7    42.1     0.7     0.0   31.04   46.56    0.35    0.41    0.00   30.63    1.67   24.73    0.00    0.82     0.8     0.6    0.57    0.68    0.79    1.01    2.10    3.49    0.19    0.14    0.04    0.03    0.03    0.01    0.00    0.00    0.01    1.01    0.91    0.60    0.60    0.71    0.80    1.01    2.10    3.49
 2020 289   135     0     0    42.8    42.1     0.7     0.0   31.22   46.74    0.36    0.41    0.00   30.81    1.77   24.73    0.00    0.84     0.8     0.6    0.58    0.69    0.79    1.01    2.10    3.49    0.19    0.14    0.04    0.03    0.03    0.01    0.00    0.00    0.01    1.03    0.93    0.60    0.61    0.72    0.80    1.01    2.10    3.49
 2020 290   136     0     0    42.9    42.2     0.7     0.0   31.38   46.88    0.36    0.41    0.00   30.97    1.83   24.73    0.00    0.86     0.8     0.6    0.58    0.69    0.79    1.01    2.10    3.49    0.20    0.14    0.05    0.03    0.03    0.01    0.00    0.00    0.01    1.06    0.94    0.61    0.61    0.73    0.80    1.01    2.10    3.49

*DSSAT Cropping System Model Ver. 4.7.5.035 -develop  JUN 02, 2021 09:26:05

*RUN   2        : 20 RAINFED BRAGG          CRGRO047 UFGA7801    2
 MODEL          : CRGRO047 - Soybean
 EXPERIMENT     : UFGA7801 SB BRAGG, IRRIGATED & NON-IRRIGATED
 DATA PATH      :
 TREATMENT  2   : 20 RAINFED BRAGG          CRGRO047
  
!                                                                                                                                      NO3 (ppm) at soil dep. (cm):                                            NH4 (ppm) at soil dep. (cm):                                            Total Inorganic N @dep(ppm):
!                                                                                                                                       0-5    5-15   15-30   30-45   45-60   60-90  90-120 120-150 150-180     0-5    5-15   15-30   30-45   45-60   60-90  90-120 120-150 150-180     0-5    5-15   15-30   30-45   45-60   60-90  90-120 120-150 150-180
@YEAR DOY   DAS  NAPC  NI#M    NIAD    NITD    NHTD   NURTD    NMNC    NITC    NDNC    NIMC    AMLC   NNMNC    NUCM    NLCC    TDNC    NI1D    NI2D    NI3D    NI4D    NI5D    NI6D    NI7D    NI8D    NI9D    NH1D    NH2D    NH3D    NH4D    NH5D    NH6D    NH7D    NH8D    NH9D    NT1D    NT2D    NT3D    NT4D    NT5D    NT6D    NT7D    NT8D    NT9D    
 2020 154     0     0     0    39.3    22.8    16.5     0.0    0.00    0.00    0.00    0.00    0.00    0.00    0.00    0.00    0.00    1.50     1.5     1.5    1.50    1.50    0.60    0.50    0.50    0.50    0.60    0.60    0.60    0.60    0.60    0.60    0.60    0.60    0.60    2.10    2.10    2.10    2.10    2.10    1.20    1.10    1.10    1.10
 2020 155     1     0     0    39.5    30.2     9.3     0.0    0.20    7.39    0.00    0.00    0.00    0.20    0.00    0.00    0.00    1.76     1.8     1.8    1.82    1.80    0.88    0.75    0.75    0.73    0.38    0.36    0.29    0.28    0.30    0.32    0.35    0.35    0.37    2.14    2.13    2.11    2.11    2.11    1.20    1.10    1.10    1.10
 2020 156     2     0     0    39.6    34.2     5.4     0.0    0.41   11.46    0.00    0.00    0.00    0.41    0.00    0.00    0.00    1.89     2.0     2.0    1.97    1.96    1.03    0.90    0.89    0.87    0.26    0.23    0.15    0.14    0.16    0.18    0.20    0.21    0.24    2.15    2.19    2.13    2.12    2.12    1.21    1.10    1.10    1.10
 2020 157     3     0     0    39.8    36.5     3.3     0.0    0.63   13.78    0.00    0.00    0.00    0.63    0.00    0.00    0.00    2.00     2.1     2.1    2.05    2.04    1.11    0.98    0.97    0.95    0.20    0.17    0.09    0.08    0.09    0.10    0.12    0.13    0.15    2.20    2.22    2.14    2.13    2.13    1.21    1.10    1.10    1.10
 2020 158     4     0     0    40.1    37.9     2.1     0.0    0.85   15.22    0.00    0.00    0.00    0.85    0.00    0.00    0.00    2.92     2.1     2.1    2.06    2.00    1.14    1.01    1.01    1.00    0.16    0.13    0.06    0.05    0.06    0.06    0.07    0.08    0.10    3.08    2.24    2.12    2.11    2.06    1.20    1.08    1.09    1.10
 2020 159     5     0     0    40.3    38.8     1.4     0.0    1.08   16.13    0.00    0.00    0.00    1.08    0.00    0.00    0.00    3.01     2.2     2.1    2.09    2.03    1.17    1.04    1.05    1.04    0.15    0.11    0.05    0.04    0.04    0.04    0.04    0.05    0.06    3.16    2.27    2.14    2.13    2.07    1.21    1.08    1.09    1.10
 2020 160     6     0     0    40.5    39.5     1.1     0.0    1.32   16.74    0.00    0.00    0.00    1.32    0.00    0.00    0.00    3.09     2.2     2.1    2.11    2.05    1.19    1.06    1.06    1.06    0.14    0.10    0.04    0.03    0.03    0.03    0.03    0.03    0.04    3.24    2.30    2.15    2.14    2.08    1.21    1.09    1.10    1.10
 2020 161     7     0     0    40.7    39.9     0.8     0.0    1.55   17.21    0.00    0.00    0.00    1.55    0.00    0.00    0.00    0.99     2.3     2.4    2.31    2.15    1.22    1.07    1.08    1.08    0.14    0.09    0.04    0.03    0.03    0.02    0.02    0.02    0.03    1.13    2.40    2.49    2.34    2.18    1.24    1.09    1.10    1.11
 2020 162     8     0     0    40.7    40.0     0.7     0.0    1.78   17.53    0.00    0.00    0.00    1.78    0.00    0.27    0.00    1.19     1.9     2.2    2.20    2.12    1.34    1.11    1.16    1.14    0.15    0.09    0.04    0.03    0.03    0.02    0.01    0.01    0.02    1.33    2.00    2.19    2.22    2.15    1.36    1.13    1.18    1.16
 2020 163     9     0     0    40.8    40.1     0.7     0.0    1.99   17.79    0.00    0.00    0.00    1.99    0.01    0.33    0.00    1.62     1.8     2.1    2.17    2.08    1.38    1.12    1.18    1.16    0.14    0.10    0.04    0.03    0.03    0.02    0.01    0.01    0.01    1.76    1.89    2.09    2.19    2.11    1.39    1.13    1.19    1.17
 2020 164    10     0     0    41.0    40.4     0.7     0.0    2.20   18.03    0.00    0.00    0.00    2.20    0.02    0.33    0.00    2.45     1.9     2.0    2.14    2.03    1.36    1.11    1.17    1.16    0.14    0.10    0.04    0.03    0.03    0.02    0.01    0.01    0.01    2.60    1.97    2.07    2.17    2.06    1.38    1.11    1.18    1.17
 2020 165    11     0     0    41.2    40.6     0.6     0.0    2.41   18.25    0.00    0.00    0.00    2.41    0.02    0.33    0.00    3.39     1.9     2.0    2.11    1.97    1.34    1.09    1.16    1.15    0.15    0.10    0.04    0.03    0.03    0.02    0.01    0.01    0.01    3.54    2.02    2.05    2.14    2.00    1.36    1.09    1.17    1.16
 2020 166    12     0     0    41.4    40.8     0.6     0.0    2.61   18.46    0.00    0.00    0.00    2.61    0.03    0.33    0.00    3.46     1.9     2.0    2.12    1.98    1.35    1.09    1.16    1.16    0.15    0.11    0.04    0.03    0.03    0.02    0.01    0.01    0.01    3.61    2.05    2.07    2.15    2.01    1.36    1.09    1.17    1.16
 2020 167    13     0     0    41.4    41.0     0.4     0.0    2.75   18.67    0.00    0.17    0.00    2.59    0.03    0.33    0.00    3.53     2.0     2.0    2.13    1.99    1.35    1.09    1.16    1.16    0.04    0.00    0.04    0.03    0.03    0.01    0.01    0.01    0.01    3.57    1.95    2.08    2.16    2.02    1.37    1.10    1.17    1.16
 2020 168    14     0     0    41.4    41.1     0.4     0.0    2.90   18.84    0.00    0.27    0.00    2.63    0.03    0.33    0.00    3.56     1.9     2.1    2.14    2.01    1.36    1.09    1.17    1.16    0.00    0.00    0.04    0.03    0.03    0.01    0.01    0.01    0.01    3.56    1.89    2.10    2.17    2.03    1.37    1.10    1.17    1.17
 2020 169    15     0     0    41.5    41.2     0.3     0.0    3.05   19.00    0.00    0.32    0.00    2.73    0.03    0.33    0.00    3.57     1.9     2.1    2.16    2.02    1.36    1.09    1.17    1.16    0.00    0.00    0.04    0.03    0.03    0.01    0.01    0.00    0.01    3.57    1.85    2.12    2.18    2.05    1.38    1.10    1.17    1.17
 2020 170    16     0     0    41.7    41.3     0.3     0.0    3.21   19.16    0.00    0.34    0.00    2.87    0.03    0.33    0.00    3.59     1.8     2.1    2.17    2.03    1.37    1.10    1.17    1.16    0.00    0.00    0.04    0.03    0.03    0.01    0.01    0.00    0.01    3.59    1.84    2.13    2.20    2.06    1.38    1.10    1.18    1.17
 2020 171    17     0     0    41.8    41.5     0.4     0.0    3.37   19.31    0.00    0.34    0.00    3.03    0.03    0.33    0.00    3.62     1.8     2.1    2.18    2.04    1.38    1.10    1.17    1.17    0.01    0.01    0.04    0.03    0.03    0.01    0.00    0.00    0.00    3.62    1.84    2.15    2.21    2.07    1.39    1.10    1.18    1.17
 2020 172    18     0     0    42.0    41.6     0.4     0.0    3.54   19.44    0.00    0.34    0.00    3.21    0.05    0.33    0.00    3.65     1.8     2.1    2.19    2.05    1.38    1.10    1.17    1.17    0.01    0.03    0.04    0.03    0.03    0.01    0.00    0.00    0.00    3.66    1.85    2.16    2.22    2.08    1.40    1.10    1.18    1.17
 2020 173    19     0     0    42.2    41.7     0.4     0.0    3.73   19.58    0.00    0.34    0.00    3.39    0.05    0.33    0.00    3.68     1.8     2.1    2.20    2.06    1.39    1.10    1.18    1.17    0.03    0.05    0.04    0.03    0.03    0.01    0.00    0.00    0.00    3.70    1.87    2.18    2.23    2.09    1.40    1.11    1.18    1.17
 2020 174    20     0     0    42.4    41.9     0.5     0.0    3.92   19.72    0.00    0.34    0.00    3.58    0.05    0.33    0.00    3.71     1.8     2.1    2.21    2.07    1.39    1.10    1.18    1.17    0.04    0.07    0.04    0.03    0.03    0.01    0.00    0.00    0.00    3.75    1.89    2.19    2.24    2.10    1.41    1.11    1.18    1.18
 2020 175    21     0     0    42.6    42.0     0.5     0.0    4.11   19.87    0.00    0.34    0.00    3.77    0.06    0.33    0.00    3.74     1.8     2.2    2.22    2.08    1.40    1.10    1.18    1.17    0.06    0.09    0.04    0.03    0.03    0.01    0.00    0.00    0.00    3.80    1.92    2.20    2.26    2.11    1.41    1.11    1.18    1.18
 2020 176    22     0     0    42.7    42.2     0.6     0.0    4.30   20.02    0.00    0.34    0.00    3.97    0.06    0.33    0.00    3.78     1.8     2.2    2.23    2.09    1.40    1.11    1.18    1.17    0.07    0.11    0.05    0.03    0.03    0.02    0.00    0.00    0.00    3.85    1.95    2.21    2.27    2.12    1.41    1.11    1.18    1.18
 2020 177    23     0     0    43.0    42.4     0.6     0.0    4.52   20.21    0.00    0.34    0.00    4.18    0.06    0.33    0.00    3.81     1.9     2.2    2.25    2.10    1.41    1.11    1.18    1.17    0.08    0.13    0.05    0.03    0.03    0.01    0.00    0.00    0.00    3.90    1.99    2.23    2.28    2.13    1.42    1.11    1.19    1.18
 2020 178    24     0     0    43.2    42.6     0.6     0.0    4.74   20.41    0.00    0.34    0.00    4.40    0.06    0.33    0.00    3.85     1.9     2.2    2.26    2.12    1.41    1.11    1.18    1.18    0.10    0.14    0.04    0.03    0.03    0.01    0.00    0.00    0.00    3.95    2.03    2.24    2.29    2.15    1.43    1.11    1.19    1.18
 2020 179    25     0     0    43.4    42.8     0.6     0.0    4.97   20.62    0.00    0.34    0.00    4.64    0.06    0.33    0.00    3.90     1.9     2.2    2.27    2.13    1.42    1.11    1.18    1.18    0.11    0.15    0.04    0.03    0.03    0.01    0.00    0.00    0.00    4.00    2.07    2.26    2.30    2.16    1.43    1.11    1.19    1.18
 2020 180    26     0     0    43.6    43.0     0.7     0.0    5.21   20.85    0.00    0.34    0.00    4.88    0.06    0.33    0.00    3.94     2.0     2.2    2.29    2.14    1.42    1.11    1.19    1.18    0.12    0.16    0.04    0.03    0.03    0.01    0.00    0.00    0.00    4.06    2.12    2.28    2.31    2.17    1.44    1.12    1.19    1.18
 2020 181    27     0     0    43.9    43.2     0.7     0.0    5.47   21.10    0.00    0.34    0.00    5.13    0.06    0.33    0.00    3.98     2.0     2.3    2.30    2.15    1.43    1.11    1.19    1.18    0.13    0.17    0.04    0.03    0.03    0.01    0.00    0.00    0.00    4.11    2.17    2.29    2.33    2.18    1.44    1.12    1.19    1.19
 2020 182    28     0     0    44.1    43.5     0.7     0.0    5.72   21.35    0.00    0.34    0.00    5.39    0.06    0.33    0.00    4.03     2.1     2.3    2.31    2.17    1.43    1.12    1.19    1.18    0.14    0.17    0.04    0.03    0.03    0.01    0.00    0.00    0.00    4.17    2.22    2.31    2.34    2.19    1.45    1.12    1.19    1.19
 2020 183    29     0     0    44.4    43.7     0.7     0.0    5.98   21.61    0.00    0.34    0.00    5.64    0.06    0.33    0.00    4.08     2.1     2.3    2.33    2.18    1.44    1.12    1.19    1.18    0.14    0.18    0.04    0.03    0.03    0.01    0.00    0.00    0.00    4.22    2.28    2.33    2.36    2.21    1.45    1.12    1.20    1.19
 2020 184    30     0     0    44.7    44.0     0.7     0.0    6.23   21.85    0.00    0.34    0.00    5.90    0.06    0.33    0.00    4.12     2.1     2.3    2.34    2.19    1.45    1.12    1.19    1.19    0.15    0.18    0.04    0.03    0.03    0.01    0.00    0.00    0.00    4.27    2.33    2.35    2.37    2.22    1.46    1.12    1.20    1.19
 2020 185    31     0     0    44.9    44.2     0.7     0.0    6.49   22.10    0.00    0.34    0.00    6.15    0.06    0.33    0.00    4.17     2.2     2.3    2.36    2.21    1.45    1.12    1.19    1.19    0.15    0.18    0.04    0.03    0.02    0.01    0.00    0.00    0.00    4.33    2.38    2.36    2.38    2.23    1.47    1.13    1.20    1.19
 2020 186    32     0     0    45.2    44.5     0.7     0.0    6.74   22.33    0.00    0.34    0.00    6.40    0.06    0.33    0.00    4.22     2.2     2.3    2.37    2.22    1.46    1.12    1.20    1.19    0.16    0.19    0.04    0.03    0.03    0.01    0.00    0.00    0.00    4.38    2.43    2.38    2.40    2.24    1.47    1.13    1.20    1.19
 2020 187    33     0     0    45.4    44.7     0.7     0.0    6.97   22.55    0.00    0.34    0.00    6.64    0.06    0.33    0.00    4.26     2.3     2.4    2.38    2.23    1.46    1.12    1.20    1.19    0.17    0.20    0.04    0.03    0.03    0.01    0.00    0.00    0.00    4.43    2.48    2.40    2.41    2.25    1.48    1.13    1.20    1.20
 2020 188    34     0     0    45.6    44.9     0.7     0.0    7.20   22.76    0.00    0.34    0.00    6.86    0.06    0.33    0.00    4.31     2.3     2.4    2.39    2.24    1.47    1.13    1.20    1.19    0.17    0.20    0.04    0.03    0.03    0.01    0.00    0.00    0.00    4.48    2.52    2.41    2.42    2.27    1.48    1.13    1.20    1.20
 2020 189    35     0     0    45.8    45.1     0.7     0.0    7.42   22.97    0.00    0.34    0.00    7.08    0.06    0.33    0.00    4.36     2.4     2.4    2.40    2.25    1.47    1.13    1.20    1.19    0.18    0.21    0.04    0.03    0.03    0.01    0.00    0.00    0.00    4.53    2.56    2.43    2.43    2.28    1.49    1.13    1.21    1.20
 2020 190    36     0     0    46.0    45.3     0.8     0.0    7.64   23.17    0.00    0.34    0.00    7.30    0.06    0.33    0.00    4.40     2.4     2.4    2.41    2.26    1.48    1.13    1.20    1.20    0.18    0.21    0.05    0.03    0.03    0.01    0.00    0.00    0.00    4.58    2.60    2.44    2.44    2.29    1.49    1.13    1.21    1.20
 2020 191    37     0     0    46.3    45.5     0.8     0.0    7.86   23.38    0.00    0.34    0.00    7.53    0.06    0.33    0.00    4.45     2.4     2.4    2.42    2.27    1.48    1.13    1.20    1.20    0.19    0.21    0.05    0.03    0.03    0.01    0.00    0.00    0.00    4.63    2.65    2.45    2.45    2.30    1.50    1.14    1.21    1.20
 2020 192    38     0     0    46.5    45.7     0.8     0.0    8.08   23.60    0.00    0.34    0.00    7.75    0.06    0.33    0.00    4.49     2.5     2.4    2.44    2.28    1.49    1.13    1.21    1.20    0.19    0.22    0.05    0.03    0.03    0.01    0.00    0.00    0.00    4.68    2.69    2.47    2.46    2.31    1.50    1.14    1.21    1.20
 2020 193    39     0     0    46.7    45.9     0.8     0.0    8.30   23.82    0.00    0.34    0.00    7.97    0.06    0.33    0.00    4.54     2.5     2.4    2.45    2.29    1.49    1.13    1.21    1.20    0.20    0.22    0.05    0.03    0.03    0.01    0.00    0.00    0.00    4.74    2.73    2.48    2.47    2.32    1.51    1.14    1.21    1.20
 2020 194    40     0     0    46.9    46.2     0.8     0.0    8.53   24.04    0.00    0.34    0.00    8.19    0.06    0.33    0.00    4.59     2.6     2.5    2.46    2.31    1.50    1.14    1.21    1.20    0.20    0.22    0.04    0.03    0.03    0.01    0.00    0.00    0.00    4.79    2.77    2.50    2.49    2.33    1.51    1.14    1.21    1.21
 2020 195    41     0     0    47.2    46.4     0.8     0.0    8.75   24.26    0.00    0.34    0.00    8.42    0.06    0.33    0.00    4.64     2.6     2.5    2.47    2.32    1.51    1.14    1.21    1.20    0.21    0.22    0.04    0.03    0.03    0.01    0.00    0.00    0.00    4.84    2.81    2.51    2.50    2.34    1.52    1.14    1.21    1.21
 2020 196    42     0     0    47.4    46.6     0.8     0.0    8.97   24.47    0.00    0.34    0.00    8.63    0.06    0.33    0.00    4.68     2.6     2.5    2.48    2.33    1.51    1.14    1.21    1.21    0.21    0.22    0.04    0.03    0.03    0.01    0.00    0.00    0.00    4.90    2.85    2.53    2.51    2.35    1.52    1.14    1.22    1.21
 2020 197    43     0     0    47.6    46.8     0.8     0.0    9.21   24.70    0.00    0.34    0.00    8.87    0.06    0.33    0.00    4.78     2.7     2.5    2.49    2.34    1.51    1.14    1.21    1.21    0.22    0.22    0.05    0.03    0.03    0.01    0.00    0.00    0.00    4.99    2.88    2.54    2.52    2.37    1.53    1.14    1.22    1.21
 2020 198    44     0     0    47.8    47.0     0.8     0.0    9.44   24.93    0.00    0.34    0.00    9.10    0.06    0.33    0.00    4.87     2.7     2.5    2.50    2.35    1.52    1.14    1.21    1.21    0.22    0.22    0.05    0.03    0.03    0.01    0.00    0.00    0.00    5.09    2.92    2.55    2.53    2.38    1.53    1.15    1.22    1.21
 2020 199    45     0     0    48.1    47.2     0.8     0.0    9.67   25.14    0.00    0.34    0.00    9.33    0.06    0.33    0.00    3.35     3.5     2.5    2.51    2.36    1.52    1.14    1.22    1.21    0.23    0.22    0.05    0.03    0.03    0.01    0.00    0.00    0.00    3.58    3.73    2.57    2.54    2.39    1.54    1.15    1.22    1.21
 2020 200    46     0     0    48.3    47.5     0.8     0.0    9.93   25.40    0.00    0.34    0.00    9.60    0.06    0.33    0.00    1.55     3.2     3.3    2.52    2.37    1.53    1.14    1.22    1.21    0.23    0.23    0.05    0.03    0.03    0.01    0.00    0.00    0.00    1.78    3.42    3.40    2.55    2.40    1.54    1.15    1.22    1.22
 2020 201    47     0     0    48.6    47.8     0.8     0.0   10.23   25.69    0.00    0.34    0.00    9.90    0.06    0.33    0.00    2.57     3.1     3.3    2.64    2.29    1.50    1.12    1.20    1.20    0.24    0.23    0.04    0.03    0.03    0.01    0.00    0.00    0.00    2.81    3.31    3.39    2.67    2.32    1.52    1.13    1.21    1.21
 2020 202    48     0     0    48.9    48.1     0.8     0.0   10.53   25.98    0.00    0.34    0.00   10.20    0.06    0.33    0.00    3.73     3.0     3.2    2.70    2.37    1.48    1.10    1.19    1.20    0.25    0.24    0.04    0.03    0.03    0.01    0.00    0.00    0.00    3.98    3.26    3.20    2.73    2.40    1.49    1.11    1.19    1.20
 2020 203    49     0     0    49.2    48.4     0.9     0.0   10.85   26.29    0.00    0.34    0.00   10.51    0.06    0.33    0.00    5.18     3.1     3.1    2.64    2.30    1.45    1.08    1.17    1.19    0.26    0.24    0.04    0.03    0.03    0.01    0.00    0.00    0.00    5.44    3.35    3.10    2.67    2.33    1.46    1.09    1.18    1.20
 2020 204    50     0     0    49.5    48.7     0.9     0.0   11.14   26.58    0.00    0.34    0.00   10.81    0.07    0.33    0.00    6.71     3.2     3.0    2.58    2.23    1.42    1.06    1.16    1.19    0.27    0.24    0.04    0.03    0.03    0.01    0.00    0.00    0.00    6.98    3.40    3.00    2.60    2.26    1.44    1.07    1.17    1.19
 2020 205    51     0     0    49.8    48.9     0.9     0.0   11.43   26.86    0.00    0.34    0.00   11.10    0.07    0.33    0.00    6.83     3.2     3.0    2.59    2.24    1.43    1.06    1.16    1.19    0.28    0.24    0.04    0.03    0.03    0.01    0.00    0.00    0.00    7.10    3.46    3.01    2.61    2.27    1.44    1.07    1.17    1.19
 2020 206    52     0     0    50.1    49.2     0.9     0.0   11.71   27.14    0.00    0.34    0.00   11.38    0.07    0.33    0.00    6.93     3.3     3.0    2.60    2.25    1.43    1.06    1.16    1.19    0.29    0.24    0.04    0.03    0.03    0.01    0.00    0.00    0.00    7.22    3.52    3.02    2.62    2.28    1.45    1.07    1.17    1.19
 2020 207    53     0     0    50.4    49.5     0.9     0.0   12.00   27.42    0.00    0.34    0.00   11.66    0.07    0.33    0.00    7.04     3.3     3.0    2.61    2.26    1.44    1.07    1.17    1.19    0.29    0.23    0.04    0.03    0.03    0.01    0.00    0.00    0.00    7.33    3.58    3.04    2.64    2.29    1.45    1.07    1.17    1.19
 2020 208    54     0     0    50.6    49.8     0.9     0.0   12.28   27.72    0.00    0.34    0.00   11.95    0.07    0.33    0.00    0.55     3.3     2.1    3.05    3.64    1.93    1.17    1.17    1.19    0.29    0.23    0.04    0.03    0.03    0.01    0.00    0.00    0.00    0.85    3.51    2.19    3.08    3.67    1.95    1.18    1.17    1.20
 2020 209    55     0     0    51.0    50.1     0.8     0.0   12.59   28.04    0.00    0.34    0.00   12.26    0.07    0.33    0.00    1.59     2.5     2.1    2.76    3.35    2.19    1.36    1.24    1.18    0.29    0.22    0.04    0.03    0.03    0.01    0.00    0.00    0.00    1.88    2.67    2.10    2.79    3.37    2.20    1.37    1.25    1.19
 2020 210    56     0     0    50.1    49.3     0.8     0.0   12.89   28.36    0.00    0.34    0.00   12.56    0.07    1.50    0.00    2.15     2.0     1.8    2.25    2.59    1.98    1.49    1.54    1.48    0.28    0.22    0.04    0.03    0.03    0.01    0.00    0.00    0.00    2.43    2.26    1.85    2.28    2.61    1.99    1.49    1.55    1.49
 2020 211    57     0     0    50.4    49.5     0.8     0.0   13.19   28.64    0.00    0.34    0.00   12.85    0.07    1.50    0.00    2.10     2.0     1.8    2.17    2.51    2.02    1.55    1.59    1.50    0.29    0.22    0.04    0.03    0.03    0.01    0.00    0.00    0.00    2.39    2.21    1.85    2.19    2.53    2.03    1.55    1.59    1.50
 2020 212    58     0     0    50.6    49.8     0.8     0.0   13.46   28.91    0.00    0.34    0.00   13.13    0.07    1.50    0.00    2.71     1.9     1.8    2.09    2.41    2.01    1.58    1.63    1.53    0.29    0.22    0.04    0.03    0.03    0.01    0.00    0.00    0.00    3.00    2.11    1.82    2.12    2.44    2.02    1.59    1.64    1.53
 2020 213    59     0     0    50.3    49.4     0.9     0.0   13.72   29.15    0.01    0.34    0.00   13.39    0.08    2.12    0.00    3.43     1.8     1.7    1.94    2.18    1.89    1.56    1.71    1.61    0.30    0.23    0.04    0.03    0.03    0.01    0.00    0.00    0.00    3.72    2.06    1.73    1.97    2.21    1.90    1.56    1.72    1.62
 2020 214    60     0     0    50.4    49.6     0.9     0.0   13.97   29.38    0.02    0.34    0.00   13.64    0.08    2.17    0.00    4.36     1.8     1.7    1.89    2.09    1.86    1.54    1.71    1.63    0.31    0.23    0.04    0.03    0.03    0.01    0.00    0.00    0.00    4.67    2.07    1.74    1.92    2.12    1.88    1.54    1.71    1.63
 2020 215    61     0     0    50.7    49.8     0.9     0.0   14.22   29.62    0.02    0.34    0.00   13.89    0.08    2.17    0.00    5.32     1.8     1.7    1.89    2.08    1.83    1.51    1.69    1.62    0.31    0.23    0.04    0.03    0.03    0.01    0.00    0.00    0.00    5.64    2.07    1.73    1.92    2.11    1.85    1.51    1.69    1.62
 2020 216    62     0     0    50.9    50.0     0.9     0.0   14.47   29.85    0.02    0.34    0.00   14.13    0.08    2.17    0.00    3.65     2.7     1.9    1.94    2.07    1.81    1.48    1.66    1.61    0.32    0.23    0.04    0.03    0.03    0.01    0.00    0.00    0.00    3.97    2.97    1.93    1.97    2.10    1.82    1.49    1.67    1.61
 2020 217    63     0     0    51.2    50.3     0.9     0.0   14.71   30.09    0.02    0.34    0.00   14.37    0.08    2.17    0.00    3.95     2.6     2.0    2.00    2.10    1.78    1.46    1.64    1.60    0.32    0.24    0.04    0.03    0.03    0.01    0.00    0.00    0.00    4.27    2.85    2.09    2.03    2.13    1.79    1.46    1.65    1.60
 2020 218    64     0     0    51.4    50.5     0.9     0.0   14.96   30.33    0.02    0.34    0.00   14.62    0.09    2.17    0.00    4.58     2.4     2.0    2.00    2.07    1.79    1.47    1.68    1.59    0.32    0.23    0.04    0.03    0.03    0.01    0.00    0.00    0.00    4.89    2.66    2.07    2.03    2.10    1.81    1.47    1.68    1.59
 2020 219    65     0     0    51.7    50.8     0.9     0.0   15.21   30.58    0.02    0.34    0.00   14.87    0.09    2.17    0.00    2.81     2.5     2.4    2.22    2.16    1.80    1.44    1.66    1.58    0.32    0.24    0.04    0.03    0.03    0.01    0.00    0.00    0.00    3.13    2.77    2.45    2.25    2.19    1.82    1.45    1.66    1.58
 2020 220    66     0     0    51.8    50.9     0.9     0.0   15.44   30.82    0.02    0.34    0.00   15.10    0.09    2.22    0.00    3.31     2.3     2.1    2.10    2.10    1.80    1.49    1.74    1.70    0.32    0.23    0.04    0.03    0.03    0.01    0.00    0.00    0.00    3.63    2.49    2.16    2.13    2.13    1.81    1.50    1.74    1.71
 2020 221    67     0     0    52.1    51.2     0.9     0.0   15.69   31.07    0.02    0.34    0.00   15.35    0.09    2.22    0.00    4.12     2.2     2.0    2.08    2.08    1.80    1.49    1.75    1.71    0.32    0.23    0.04    0.03    0.03    0.01    0.00    0.00    0.00    4.44    2.41    2.08    2.11    2.11    1.81    1.50    1.75    1.71
 2020 222    68     0     0    52.3    51.5     0.9     0.0   15.95   31.35    0.03    0.34    0.00   15.62    0.09    2.22    0.00    5.21     2.2     2.0    2.06    2.06    1.77    1.47    1.72    1.70    0.31    0.22    0.04    0.03    0.03    0.01    0.00    0.00    0.00    5.53    2.44    2.06    2.09    2.09    1.78    1.47    1.73    1.70
 2020 223    69     0     0    52.6    51.7     0.9     0.0   16.23   31.64    0.03    0.34    0.00   15.89    0.09    2.22    0.00    6.34     2.2     2.0    2.04    2.05    1.75    1.44    1.70    1.69    0.31    0.22    0.04    0.03    0.03    0.01    0.00    0.00    0.00    6.65    2.44    2.03    2.07    2.08    1.76    1.45    1.71    1.69
 2020 224    70     0     0    52.9    52.0     0.8     0.0   16.50   31.94    0.03    0.34    0.00   16.16    0.09    2.22    0.00    6.45     2.3     2.0    2.05    2.06    1.75    1.44    1.70    1.69    0.31    0.21    0.04    0.03    0.03    0.01    0.00    0.00    0.00    6.76    2.49    2.05    2.08    2.09    1.76    1.45    1.71    1.70
 2020 225    71     0     0    53.1    52.3     0.8     0.0   16.77   32.24    0.03    0.34    0.00   16.44    0.09    2.22    0.00    6.56     2.4     2.0    2.06    2.07    1.76    1.45    1.71    1.69    0.30    0.20    0.04    0.03    0.03    0.01    0.00    0.00    0.00    6.86    2.55    2.06    2.09    2.10    1.77    1.45    1.71    1.70
 2020 226    72     0     0    53.4    52.6     0.8     0.0   17.04   32.52    0.03    0.34    0.00   16.71    0.09    2.22    0.00    6.66     2.4     2.0    2.08    2.08    1.76    1.45    1.71    1.70    0.30    0.19    0.04    0.03    0.03    0.01    0.00    0.00    0.00    6.96    2.60    2.08    2.10    2.11    1.77    1.45    1.71    1.70
 2020 227    73     0     0    53.7    52.9     0.8     0.0   17.30   32.78    0.03    0.34    0.00   16.96    0.09    2.22    0.00    6.75     2.5     2.1    2.09    2.09    1.77    1.45    1.71    1.70    0.30    0.19    0.04    0.03    0.03    0.01    0.00    0.00    0.00    7.05    2.65    2.09    2.11    2.12    1.78    1.45    1.71    1.70
 2020 228    74     0     0    53.9    53.1     0.8     0.0   17.54   33.03    0.03    0.34    0.00   17.21    0.09    2.22    0.00    6.84     2.5     2.1    2.10    2.10    1.77    1.45    1.71    1.70    0.30    0.19    0.04    0.03    0.03    0.01    0.00    0.00    0.00    7.13    2.70    2.10    2.12    2.13    1.78    1.45    1.71    1.70
 2020 229    75     0     0    54.2    53.4     0.8     0.0   17.78   33.27    0.03    0.34    0.00   17.45    0.09    2.22    0.00    6.09     3.0     2.1    2.11    2.11    1.78    1.45    1.71    1.70    0.30    0.19    0.04    0.03    0.03    0.01    0.00    0.00    0.00    6.38    3.14    2.12    2.14    2.14    1.79    1.46    1.72    1.70
 2020 230    76     0     0    54.4    53.6     0.8     0.0   18.05   33.54    0.03    0.34    0.00   17.71    0.09    2.22    0.00    6.22     3.0     2.1    2.12    2.12    1.78    1.45    1.71    1.70    0.29    0.19    0.04    0.03    0.03    0.01    0.00    0.00    0.00    6.51    3.19    2.13    2.15    2.15    1.79    1.46    1.72    1.71
 2020 231    77     0     0    54.7    53.9     0.8     0.0   18.31   33.80    0.03    0.34    0.00   17.98    0.09    2.22    0.00    7.80     2.8     2.1    2.10    2.10    1.75    1.43    1.69    1.69    0.29    0.19    0.04    0.03    0.03    0.01    0.00    0.00    0.00    8.09    2.99    2.10    2.13    2.13    1.77    1.43    1.70    1.70
 2020 232    78     0     0    54.9    54.1     0.8     0.0   18.57   34.06    0.03    0.34    0.00   18.23    0.09    2.22    0.00    7.92     2.8     2.1    2.11    2.11    1.76    1.43    1.69    1.69    0.28    0.18    0.04    0.03    0.03    0.01    0.00    0.00    0.00    8.20    3.03    2.11    2.14    2.14    1.77    1.44    1.70    1.70
 2020 233    79     0     0    55.2    54.4     0.8     0.0   18.82   34.31    0.03    0.34    0.00   18.48    0.09    2.22    0.00    8.03     2.9     2.1    2.12    2.12    1.76    1.43    1.70    1.69    0.29    0.18    0.04    0.03    0.03    0.01    0.00    0.00    0.00    8.31    3.07    2.12    2.15    2.15    1.78    1.44    1.70    1.70
 2020 234    80     0     0    55.4    54.6     0.8     0.0   19.06   34.55    0.03    0.34    0.00   18.73    0.09    2.22    0.00    8.13     2.9     2.1    2.13    2.13    1.77    1.43    1.70    1.70    0.29    0.18    0.04    0.03    0.03    0.01    0.00    0.00    0.00    8.42    3.11    2.14    2.16    2.16    1.78    1.44    1.70    1.70
 2020 235    81     0     0    55.7    54.9     0.8     0.0   19.30   34.79    0.03    0.34    0.00   18.97    0.09    2.22    0.00    8.23     3.0     2.1    2.14    2.14    1.77    1.44    1.70    1.70    0.29    0.18    0.04    0.03    0.03    0.01    0.00    0.00    0.00    8.52    3.14    2.15    2.17    2.17    1.79    1.44    1.70    1.70
 2020 236    82     0     0    55.9    55.1     0.8     0.0   19.54   35.03    0.03    0.34    0.00   19.20    0.09    2.22    0.00    8.33     3.0     2.1    2.15    2.15    1.78    1.44    1.70    1.70    0.28    0.18    0.04    0.03    0.03    0.01    0.00    0.00    0.00    8.62    3.18    2.16    2.18    2.18    1.79    1.44    1.70    1.70
 2020 237    83     0     0    56.1    55.3     0.8     0.0   19.77   35.27    0.03    0.34    0.00   19.44    0.09    2.22    0.00    8.42     3.0     2.1    2.16    2.16    1.78    1.44    1.70    1.70    0.28    0.18    0.04    0.03    0.03    0.01    0.00    0.00    0.00    8.71    3.21    2.18    2.19    2.19    1.80    1.44    1.71    1.71
 2020 238    84     0     0    56.4    55.6     0.8     0.0   20.01   35.51    0.03    0.34    0.00   19.67    0.09    2.22    0.00    8.52     3.1     2.2    2.17    2.18    1.79    1.44    1.70    1.70    0.28    0.18    0.04    0.03    0.03    0.01    0.00    0.00    0.00    8.80    3.25    2.19    2.20    2.20    1.80    1.44    1.71    1.71
 2020 239    85     0     0    56.6    55.8     0.8     0.0   20.24   35.75    0.03    0.34    0.00   19.91    0.09    2.22    0.00    8.61     3.1     2.2    2.19    2.19    1.79    1.44    1.70    1.70    0.28    0.18    0.04    0.03    0.03    0.01    0.00    0.00    0.00    8.89    3.28    2.21    2.21    2.21    1.81    1.45    1.71    1.71
 2020 240    86     0     0    56.8    56.1     0.8     0.0   20.48   36.00    0.03    0.34    0.00   20.15    0.09    2.22    0.00    8.70     3.1     2.2    2.20    2.20    1.80    1.44    1.71    1.71    0.28    0.17    0.04    0.03    0.03    0.01    0.00    0.00    0.00    8.97    3.31    2.22    2.22    2.23    1.81    1.45    1.71    1.71
 2020 241    87     0     0    57.1    56.3     0.8     0.0   20.72   36.24    0.03    0.34    0.00   20.38    0.09    2.22    0.00    0.53     4.1     2.0    2.93    3.10    2.03    1.51    1.71    1.71    0.28    0.17    0.04    0.03    0.03    0.01    0.00    0.00    0.00    0.80    4.23    2.06    2.95    3.13    2.04    1.51    1.71    1.71
 2020 242    88     0     0    57.3    56.6     0.7     0.0   20.99   36.53    0.03    0.34    0.00   20.65    0.09    2.22    0.00    1.75     2.8     2.1    2.69    3.10    2.22    1.62    1.76    1.70    0.26    0.17    0.04    0.03    0.03    0.01    0.00    0.00    0.00    2.01    2.99    2.16    2.71    3.12    2.23    1.62    1.76    1.70
 2020 243    89     0     0    55.9    55.2     0.7     0.0   21.24   36.79    0.03    0.34    0.00   20.90    0.10    3.89    0.00    2.11     2.2     1.9    2.18    2.45    2.03    1.68    1.99    2.01    0.26    0.16    0.04    0.03    0.03    0.01    0.00    0.00    0.00    2.37    2.39    1.91    2.21    2.47    2.04    1.69    1.99    2.02
 2020 244    90     0     0    55.5    54.8     0.7     0.0   21.50   37.06    0.03    0.34    0.00   21.16    0.10    4.54    0.00    3.00     2.0     1.7    1.97    2.19    1.97    1.69    2.06    2.11    0.26    0.16    0.04    0.03    0.03    0.01    0.00    0.00    0.00    3.26    2.15    1.78    2.00    2.22    1.98    1.70    2.07    2.12
 2020 245    91     0     0    55.6    54.9     0.7     0.0   21.74   37.29    0.03    0.34    0.00   21.40    0.10    4.66    0.00    4.00     1.9     1.7    1.90    2.10    1.93    1.68    2.08    2.14    0.26    0.16    0.04    0.03    0.03    0.01    0.00    0.00    0.00    4.26    2.08    1.72    1.92    2.13    1.95    1.68    2.09    2.14
 2020 246    92     0     0    55.8    55.1     0.7     0.0   21.96   37.49    0.03    0.34    0.00   21.62    0.10    4.66    0.00    4.84     1.9     1.7    1.90    2.10    1.92    1.65    2.06    2.13    0.26    0.17    0.04    0.03    0.03    0.01    0.00    0.00    0.00    5.10    2.05    1.72    1.93    2.13    1.93    1.66    2.06    2.13
 2020 247    93     0     0    56.1    55.3     0.8     0.0   22.17   37.68    0.03    0.34    0.00   21.83    0.10    4.66    0.00    5.81     1.8     1.7    1.91    2.09    1.89    1.63    2.03    2.12    0.27    0.17    0.04    0.03    0.03    0.01    0.00    0.00    0.00    6.08    2.01    1.72    1.93    2.12    1.90    1.63    2.04    2.12
 2020 248    94     0     0    56.2    55.5     0.8     0.0   22.38   37.88    0.03    0.34    0.00   22.04    0.13    4.66    0.00    5.85     1.9     1.7    1.91    2.10    1.90    1.63    2.04    2.12    0.27    0.17    0.04    0.03    0.03    0.01    0.00    0.00    0.00    6.12    2.05    1.73    1.94    2.13    1.91    1.64    2.04    2.12
 2020 249    95     0     0    56.4    55.6     0.8     0.0   22.58   38.08    0.03    0.34    0.00   22.24    0.16    4.66    0.00    5.88     1.9     1.7    1.92    2.11    1.90    1.63    2.04    2.12    0.28    0.17    0.04    0.03    0.03    0.01    0.00    0.00    0.00    6.16    2.08    1.74    1.95    2.14    1.91    1.64    2.04    2.12
 2020 250    96     0     0    56.6    55.8     0.8     0.0   22.80   38.30    0.03    0.34    0.00   22.46    0.19    4.66    0.00    5.92     1.9     1.7    1.93    2.12    1.90    1.63    2.04    2.12    0.28    0.17    0.04    0.03    0.03    0.01    0.00    0.00    0.00    6.20    2.11    1.75    1.96    2.15    1.92    1.64    2.04    2.13
 2020 251    97     0     0    56.8    56.0     0.8     0.0   23.03   38.55    0.03    0.34    0.00   22.70    0.23    4.66    0.00    5.97     2.0     1.7    1.94    2.13    1.91    1.63    2.04    2.12    0.27    0.16    0.04    0.03    0.03    0.01    0.00    0.00    0.00    6.24    2.15    1.77    1.97    2.16    1.92    1.64    2.05    2.13
 2020 252    98     0     0    57.0    56.2     0.7     0.0   23.27   38.80    0.03    0.34    0.00   22.93    0.29    4.66    0.00    2.78     3.0     2.0    2.01    2.20    1.91    1.64    2.04    2.12    0.27    0.16    0.04    0.03    0.03    0.01    0.00    0.00    0.00    3.05    3.17    2.04    2.03    2.23    1.92    1.64    2.05    2.13
 2020 253    99     0     0    57.1    56.4     0.8     0.0   23.49   39.01    0.03    0.34    0.00   23.15    0.34    4.66    0.00    0.83     1.6     2.2    2.52    2.56    2.04    1.74    2.04    2.13    0.27    0.16    0.04    0.03    0.03    0.01    0.00    0.00    0.00    1.11    1.78    2.26    2.55    2.59    2.05    1.74    2.05    2.13
 2020 254   100     0     0    57.3    56.5     0.8     0.0   23.66   39.16    0.03    0.34    0.00   23.33    0.34    4.66    0.00    0.70     1.3     1.9    2.37    2.64    2.16    1.83    2.14    2.15    0.28    0.17    0.04    0.03    0.03    0.01    0.00    0.00    0.00    0.98    1.51    1.95    2.40    2.67    2.17    1.83    2.14    2.16
 2020 255   101     0     0    55.2    54.4     0.8     0.0   23.80   39.29    0.04    0.34    0.00   23.47    0.38    6.87    0.00    0.62     1.1     1.6    1.92    2.16    1.94    1.78    2.28    2.42    0.28    0.17    0.04    0.03    0.03    0.01    0.00    0.00    0.00    0.90    1.29    1.60    1.95    2.19    1.96    1.79    2.29    2.43
 2020 256   102     0     0    54.1    53.3     0.8     0.0   23.92   39.40    0.05    0.34    0.00   23.59    0.41    7.98    0.00    0.58     1.0     1.4    1.70    1.94    1.84    1.78    2.36    2.55    0.28    0.17    0.05    0.03    0.03    0.01    0.00    0.00    0.00    0.87    1.17    1.42    1.73    1.97    1.86    1.78    2.36    2.55
 2020 257   103     0     0    53.7    52.9     0.8     0.0   24.03   39.50    0.05    0.34    0.00   23.70    0.46    8.49    0.00    0.57     0.9     1.3    1.59    1.83    1.81    1.77    2.39    2.60    0.28    0.17    0.05    0.03    0.03    0.01    0.00    0.00    0.00    0.85    1.11    1.32    1.62    1.86    1.83    1.78    2.39    2.61
 2020 258   104     0     0    53.5    52.7     0.8     0.0   24.16   39.62    0.05    0.34    0.00   23.83    0.50    8.75    0.00    0.58     0.9     1.2    1.53    1.77    1.80    1.77    2.40    2.63    0.28    0.18    0.05    0.03    0.03    0.01    0.00    0.00    0.00    0.86    1.10    1.28    1.56    1.81    1.82    1.78    2.41    2.64
 2020 259   105     0     0    53.6    52.8     0.8     0.0   24.33   39.78    0.05    0.34    0.00   24.00    0.55    8.77    0.00    0.61     0.9     1.2    1.54    1.78    1.80    1.77    2.40    2.63    0.28    0.18    0.05    0.03    0.03    0.01    0.00    0.00    0.00    0.89    1.12    1.28    1.57    1.81    1.82    1.78    2.41    2.64
 2020 260   106     0     0    53.7    52.9     0.8     0.0   24.53   39.98    0.06    0.34    0.00   24.19    0.61    8.77    0.00    0.66     1.0     1.2    1.54    1.78    1.80    1.77    2.40    2.64    0.28    0.18    0.05    0.03    0.03    0.01    0.00    0.00    0.00    0.94    1.14    1.29    1.57    1.82    1.82    1.78    2.41    2.64
 2020 261   107     0     0    53.9    53.1     0.8     0.0   24.73   40.19    0.06    0.34    0.00   24.39    0.67    8.77    0.00    0.71     1.0     1.3    1.55    1.79    1.80    1.77    2.41    2.64    0.28    0.17    0.05    0.03    0.03    0.01    0.00    0.00    0.00    0.99    1.17    1.30    1.58    1.82    1.82    1.78    2.41    2.64
 2020 262   108     0     0    54.0    53.2     0.8     0.0   24.93   40.40    0.06    0.34    0.00   24.59    0.74    8.77    0.00    0.76     1.0     1.3    1.56    1.80    1.80    1.77    2.41    2.64    0.27    0.17    0.05    0.03    0.03    0.01    0.00    0.00    0.00    1.03    1.20    1.31    1.59    1.83    1.82    1.78    2.41    2.64
 2020 263   109     0     0    54.1    53.3     0.8     0.0   25.12   40.60    0.07    0.34    0.00   24.79    0.81    8.77    0.00    0.81     1.1     1.3    1.56    1.80    1.80    1.77    2.41    2.64    0.27    0.17    0.05    0.03    0.03    0.01    0.00    0.00    0.00    1.07    1.23    1.31    1.59    1.84    1.82    1.78    2.41    2.65
 2020 264   110     0     0    54.2    53.4     0.8     0.0   25.32   40.79    0.07    0.34    0.00   24.98    0.89    8.77    0.00    0.85     1.1     1.3    1.57    1.81    1.80    1.77    2.41    2.64    0.27    0.17    0.05    0.03    0.03    0.01    0.00    0.00    0.00    1.12    1.25    1.32    1.60    1.84    1.82    1.78    2.41    2.65
 2020 265   111     0     0    54.3    53.6     0.8     0.0   25.52   41.00    0.08    0.34    0.00   25.18    0.97    8.77    0.00    0.89     1.1     1.3    1.57    1.81    1.80    1.77    2.41    2.64    0.26    0.17    0.05    0.03    0.03    0.01    0.00    0.00    0.00    1.16    1.27    1.32    1.61    1.85    1.82    1.78    2.41    2.65
 2020 266   112     0     0    54.4    53.7     0.8     0.0   25.72   41.21    0.08    0.34    0.00   25.39    1.07    8.77    0.00    0.94     1.1     1.3    1.58    1.82    1.80    1.77    2.41    2.64    0.26    0.17    0.05    0.03    0.03    0.01    0.00    0.00    0.00    1.20    1.30    1.33    1.61    1.85    1.81    1.78    2.42    2.65
 2020 267   113     0     0    54.5    53.8     0.8     0.0   25.93   41.42    0.08    0.34    0.00   25.59    1.18    8.77    0.00    0.98     1.2     1.3    1.58    1.82    1.80    1.77    2.41    2.65    0.26    0.17    0.05    0.03    0.03    0.01    0.00    0.00    0.00    1.24    1.32    1.34    1.62    1.86    1.81    1.78    2.42    2.65
 2020 268   114     0     0    54.6    53.9     0.8     0.0   26.13   41.63    0.09    0.34    0.00   25.80    1.29    8.77    0.00    1.03     1.2     1.3    1.59    1.83    1.80    1.77    2.41    2.65    0.25    0.16    0.04    0.03    0.03    0.01    0.00    0.00    0.00    1.28    1.34    1.34    1.62    1.86    1.81    1.78    2.42    2.65
 2020 269   115     0     0    54.7    53.9     0.7     0.0   26.35   41.86    0.09    0.34    0.00   26.02    1.41    8.77    0.00    1.07     1.2     1.3    1.59    1.83    1.79    1.77    2.41    2.65    0.25    0.16    0.04    0.03    0.03    0.01    0.00    0.00    0.00    1.32    1.36    1.35    1.63    1.86    1.81    1.77    2.42    2.65
 2020 270   116     0     0    54.8    54.0     0.7     0.0   26.57   42.10    0.09    0.34    0.00   26.24    1.55    8.77    0.00    1.12     1.2     1.3    1.60    1.84    1.79    1.77    2.41    2.65    0.24    0.16    0.04    0.03    0.03    0.01    0.00    0.00    0.00    1.36    1.39    1.35    1.63    1.87    1.80    1.77    2.42    2.66
 2020 271   117     0     0    54.9    54.1     0.7     0.0   26.81   42.35    0.10    0.34    0.00   26.47    1.70    8.77    0.00    1.16     1.3     1.3    1.61    1.84    1.79    1.77    2.41    2.65    0.23    0.15    0.04    0.03    0.03    0.01    0.00    0.00    0.00    1.40    1.41    1.36    1.64    1.87    1.80    1.77    2.42    2.66
 2020 272   118     0     0    54.9    54.2     0.7     0.0   27.03   42.57    0.10    0.34    0.00   26.69    1.86    8.77    0.00    1.20     1.3     1.3    1.61    1.85    1.78    1.77    2.42    2.65    0.23    0.15    0.04    0.03    0.03    0.01    0.00    0.00    0.00    1.43    1.43    1.36    1.64    1.88    1.80    1.77    2.42    2.66
 2020 273   119     0     0    54.9    54.2     0.7     0.0   27.24   42.78    0.11    0.34    0.00   26.90    2.03    8.77    0.00    1.23     1.3     1.3    1.61    1.85    1.78    1.76    2.42    2.66    0.23    0.15    0.04    0.03    0.03    0.01    0.00    0.00    0.00    1.46    1.44    1.36    1.64    1.88    1.79    1.77    2.42    2.66
 2020 274   120     0     0    55.0    54.2     0.7     0.0   27.43   42.96    0.11    0.34    0.00   27.09    2.20    8.77    0.00    1.25     1.3     1.3    1.61    1.85    1.77    1.76    2.42    2.66    0.23    0.15    0.04    0.03    0.03    0.01    0.00    0.00    0.00    1.48    1.45    1.36    1.65    1.88    1.78    1.77    2.42    2.66
 2020 275   121     0     0    55.0    54.2     0.7     0.0   27.61   43.13    0.11    0.34    0.00   27.27    2.37    8.77    0.00    1.27     1.3     1.3    1.62    1.85    1.76    1.76    2.42    2.66    0.23    0.15    0.04    0.03    0.03    0.01    0.00    0.00    0.00    1.50    1.46    1.37    1.65    1.88    1.78    1.76    2.42    2.66
 2020 276   122     0     0    54.9    54.2     0.7     0.0   27.77   43.27    0.12    0.34    0.00   27.43    2.55    8.80    0.00    1.28     1.3     1.3    1.61    1.84    1.76    1.76    2.42    2.66    0.23    0.16    0.05    0.03    0.03    0.01    0.00    0.00    0.00    1.51    1.44    1.36    1.64    1.88    1.77    1.76    2.42    2.67
 2020 277   123     0     0    54.9    54.1     0.8     0.0   27.93   43.42    0.12    0.34    0.00   27.59    2.73    8.80    0.00    1.29     1.3     1.3    1.61    1.84    1.75    1.75    2.42    2.66    0.24    0.16    0.05    0.03    0.03    0.01    0.00    0.00    0.00    1.52    1.44    1.36    1.64    1.88    1.76    1.76    2.42    2.67
 2020 278   124     0     0    54.9    54.1     0.8     0.0   28.09   43.58    0.12    0.34    0.00   27.76    2.91    8.80    0.00    1.30     1.3     1.3    1.61    1.84    1.74    1.75    2.42    2.67    0.24    0.16    0.05    0.03    0.03    0.01    0.00    0.00    0.00    1.54    1.45    1.36    1.64    1.88    1.76    1.76    2.42    2.67
 2020 279   125     0     0    54.8    54.1     0.8     0.0   28.25   43.73    0.13    0.34    0.00   27.91    3.09    8.80    0.00    1.31     1.3     1.3    1.61    1.84    1.74    1.75    2.42    2.67    0.24    0.16    0.05    0.03    0.03    0.01    0.00    0.00    0.00    1.55    1.45    1.36    1.64    1.87    1.75    1.75    2.42    2.67
 2020 280   126     0     0    54.8    54.0     0.8     0.0   28.41   43.89    0.13    0.34    0.00   28.08    3.27    8.80    0.00    1.32     1.3     1.3    1.61    1.84    1.73    1.75    2.42    2.67    0.24    0.16    0.05    0.03    0.03    0.01    0.00    0.00    0.00    1.56    1.45    1.36    1.65    1.87    1.74    1.75    2.42    2.67
 2020 281   127     0     0    54.8    54.0     0.8     0.0   28.59   44.06    0.13    0.34    0.00   28.25    3.46    8.80    0.00    1.34     1.3     1.3    1.61    1.84    1.72    1.74    2.42    2.67    0.24    0.16    0.05    0.03    0.03    0.01    0.00    0.00    0.00    1.57    1.46    1.36    1.65    1.87    1.74    1.75    2.42    2.67
 2020 282   128     0     0    54.8    54.0     0.8     0.0   28.78   44.25    0.13    0.34    0.00   28.44    3.66    8.80    0.00    1.35     1.3     1.3    1.61    1.84    1.72    1.74    2.42    2.67    0.24    0.16    0.05    0.03    0.03    0.01    0.00    0.00    0.00    1.59    1.46    1.36    1.65    1.87    1.73    1.75    2.42    2.68
 2020 283   129     0     0    54.8    54.0     0.7     0.0   28.98   44.47    0.14    0.34    0.00   28.64    3.86    8.80    0.00    1.38     1.3     1.3    1.62    1.84    1.71    1.74    2.42    2.67    0.23    0.16    0.05    0.03    0.03    0.01    0.00    0.00    0.00    1.61    1.47    1.36    1.65    1.87    1.72    1.74    2.42    2.68
 2020 284   130     0     0    54.8    54.0     0.7     0.0   29.19   44.70    0.14    0.34    0.00   28.85    4.06    8.80    0.00    1.40     1.3     1.3    1.62    1.84    1.70    1.74    2.42    2.67    0.23    0.15    0.05    0.03    0.03    0.01    0.00    0.00    0.00    1.63    1.48    1.36    1.65    1.87    1.72    1.74    2.42    2.68
 2020 285   131     0     0    54.8    54.0     0.7     0.0   29.40   44.92    0.15    0.34    0.00   29.07    4.28    8.80    0.00    1.42     1.3     1.3    1.62    1.84    1.69    1.73    2.42    2.68    0.22    0.15    0.04    0.03    0.03    0.01    0.00    0.00    0.00    1.64    1.48    1.36    1.65    1.88    1.71    1.74    2.42    2.68
 2020 286   132     0     0    54.7    54.0     0.7     0.0   29.62   45.15    0.15    0.34    0.00   29.28    4.50    8.80    0.00    1.45     1.3     1.3    1.62    1.85    1.69    1.73    2.42    2.68    0.21    0.15    0.04    0.03    0.03    0.01    0.00    0.00    0.00    1.66    1.49    1.36    1.65    1.88    1.70    1.74    2.42    2.68
 2020 287   133     0     0    54.9    54.2     0.7     0.0   29.83   45.36    0.15    0.34    0.00   29.49    4.50    8.80    0.00    1.50     1.4     1.3    1.63    1.86    1.69    1.73    2.42    2.68    0.21    0.15    0.04    0.03    0.03    0.01    0.00    0.00    0.00    1.71    1.53    1.37    1.66    1.89    1.71    1.74    2.42    2.68
 2020 288   134     0     0    55.0    54.3     0.7     0.0   30.02   45.54    0.16    0.34    0.00   29.68    4.67    8.80    0.00    1.51     1.4     1.3    1.64    1.86    1.69    1.73    2.42    2.68    0.21    0.15    0.04    0.03    0.03    0.01    0.00    0.00    0.00    1.73    1.54    1.38    1.67    1.89    1.70    1.74    2.42    2.68
 2020 289   135     0     0    54.9    54.2     0.7     0.0   30.20   45.72    0.16    0.34    0.00   29.87    4.90    8.80    0.00    1.52     1.4     1.3    1.63    1.85    1.68    1.73    2.42    2.68    0.21    0.15    0.04    0.03    0.03    0.01    0.00    0.00    0.00    1.73    1.54    1.37    1.67    1.89    1.69    1.73    2.42    2.69
 2020 290   136     0     0    54.9    54.2     0.7     0.0   30.36   45.87    0.16    0.34    0.00   30.03    5.03    8.80    0.00    1.53     1.4     1.3    1.64    1.86    1.67    1.73    2.42    2.68    0.22    0.15    0.05    0.03    0.03    0.01    0.00    0.00    0.00    1.75    1.55    1.38    1.67    1.89    1.69    1.73    2.42    2.69
