*Soil Carbon Balance

*DSSAT Cropping System Model Ver. 4.7.5.035 -develop  JUN 02, 2021 09:26:05

*RUN   1        : 20 IRRIG, light rate,freq CRGRO047 UFGA7801    1
 MODEL          : CRGRO047 - Soybean
 EXPERIMENT     : UFGA7801 SB BRAGG, IRRIGATED & NON-IRRIGATED
 DATA PATH      :
 TREATMENT  1   : 20 IRRIG, light rate,freq CRGRO047
  

!                                                 Initial               Final
!                                                Year/DOY            Year/DOY
!                                                2020-154            2020-154
! SOIL C BALANCE                                 --------- kg[C]/ha ---------
!  SOIL & SURFACE ORGANIC C
!   Soil Organic C                               38919.00            38734.48
!   Surface Organic C                                0.00                0.00
!   Soil Litter C                                   40.00               45.99
!   Surface Litter C                                 0.00                2.07
!                                                --------            --------
!   Total C in Soil and Surface Layers           38959.00            38782.54
!  ADDITIONS AND REMOVALS:
!   C in Harvest Residues from Previous              0.00
!   C from Organic Applications                    400.00
!   C in returned senesced material                 12.07
!   CO2-C emitted                                                      588.54
!                                                --------            --------
! TOTAL C BALANCE                                39371.07            39371.08
!   Balance                                                             0.010

*DSSAT Cropping System Model Ver. 4.7.5.035 -develop  JUN 02, 2021 09:26:05

*RUN   2        : 20 RAINFED BRAGG          CRGRO047 UFGA7801    2
 MODEL          : CRGRO047 - Soybean
 EXPERIMENT     : UFGA7801 SB BRAGG, IRRIGATED & NON-IRRIGATED
 DATA PATH      :
 TREATMENT  2   : 20 RAINFED BRAGG          CRGRO047
  

!                                                 Initial               Final
!                                                Year/DOY            Year/DOY
!                                                2020-154            2020-154
! SOIL C BALANCE                                 --------- kg[C]/ha ---------
!  SOIL & SURFACE ORGANIC C
!   Soil Organic C                               38919.00            38740.48
!   Surface Organic C                                0.00                0.00
!   Soil Litter C                                   40.00               52.43
!   Surface Litter C                                 0.00                2.68
!                                                --------            --------
!   Total C in Soil and Surface Layers           38959.00            38795.59
!  ADDITIONS AND REMOVALS:
!   C in Harvest Residues from Previous              0.00
!   C from Organic Applications                    400.00
!   C in returned senesced material                 12.92
!   CO2-C emitted                                                      576.35
!                                                --------            --------
! TOTAL C BALANCE                                39371.92            39371.93
!   Balance                                                             0.013
