*Soil Organic Matter daily output file

*DSSAT Cropping System Model Ver. 4.7.5.035 -develop  MAY 07, 2021 11:55:39

*RUN   1        : 20 IRRIG, light rate,freq CRGRO047 UFGA7801    1
 MODEL          : CRGRO047 - Soybean
 EXPERIMENT     : UFGA7801 SB BRAGG, IRRIGATED & NON-IRRIGATED
 DATA PATH      :
 TREATMENT  1   : 20 IRRIG, light rate,freq CRGRO047
  
@YEAR DOY   DAS    OMAC    SCDD    SOCD    SC0D    SCTD   SOMCT    LCTD    ONAC    SNDD    SOND    SN0D    SNTD   SOMNT    LNTD
 2020 154     0       0    8775   38959       0   38959   38919    40.0    0.00   877.5  3892.7    0.00  3892.7  3891.9    0.75
 2020 155     1       0    8775   38955       0   38955   38917    37.6    0.00   877.5  3892.5    0.00  3892.5  3891.7    0.78
 2020 156     2       0    8774   38951       0   38951   38915    35.4    0.00   877.4  3892.2    0.00  3892.2  3891.4    0.80
 2020 157     3       0    8774   38947       0   38947   38913    33.5    0.00   877.4  3892.0    0.00  3892.0  3891.2    0.81
 2020 158     4       0    8773   38943       0   38943   38911    31.9    0.00   877.3  3891.8    0.00  3891.8  3891.0    0.81
 2020 159     5       0    8773   38940       0   38940   38909    30.5    0.00   877.3  3891.6    0.00  3891.6  3890.8    0.81
 2020 160     6       0    8772   38936       0   38936   38907    29.3    0.00   877.2  3891.3    0.00  3891.3  3890.5    0.80
 2020 161     7       0    8772   38933       0   38933   38905    28.1    0.00   877.2  3891.1    0.00  3891.1  3890.3    0.79
 2020 162     8       0    8771   38930       0   38930   38903    27.3    0.00   877.1  3890.9    0.00  3890.9  3890.1    0.80
 2020 163     9       0    8771   38928       0   38928   38901    26.6    0.00   877.1  3890.7    0.00  3890.7  3889.9    0.81
 2020 164    10       0    8771   38925       0   38925   38899    26.0    0.00   877.0  3890.5    0.00  3890.5  3889.7    0.81
 2020 165    11       0    8770   38923       0   38923   38897    25.4    0.00   877.0  3890.3    0.00  3890.3  3889.5    0.81
 2020 166    12    1000    8770   39320       0   39320   38895   424.9    8.00   876.9  3898.1    0.00  3898.1  3889.3    8.82
 2020 167    13    1000    8769   39303       0   39303   38897   406.6    8.00   876.7  3898.2    0.00  3898.2  3889.2    8.99
 2020 168    14    1000    8771   39283       0   39283   38899   384.2    8.00   876.7  3898.2    0.00  3898.2  3889.0    9.14
 2020 169    15    1000    8773   39264       0   39264   38901   362.7    8.00   876.7  3898.1    0.00  3898.1  3888.9    9.22
 2020 170    16    1000    8775   39247       0   39247   38902   344.6    8.00   876.7  3898.0    0.00  3898.0  3888.8    9.22
 2020 171    17    1000    8777   39231       0   39231   38904   326.7    8.00   876.7  3897.8    0.00  3897.8  3888.6    9.17
 2020 172    18    1000    8778   39216       0   39216   38905   311.4    8.00   876.8  3897.6    0.00  3897.6  3888.5    9.09
 2020 173    19    1000    8779   39204       0   39204   38905   298.0    8.00   876.8  3897.4    0.00  3897.4  3888.4    8.99
 2020 174    20    1000    8780   39192       0   39192   38906   286.5    8.00   876.8  3897.1    0.00  3897.1  3888.3    8.88
 2020 175    21    1000    8781   39183       0   39183   38906   276.8    8.00   876.8  3896.9    0.00  3896.9  3888.1    8.77
 2020 176    22    1000    8782   39174       0   39174   38906   268.3    8.00   876.8  3896.6    0.00  3896.6  3888.0    8.66
 2020 177    23    1000    8782   39165       0   39165   38905   260.0    8.00   876.8  3896.4    0.00  3896.4  3887.8    8.54
 2020 178    24    1000    8783   39157       0   39157   38905   252.3    8.00   876.8  3896.1    0.00  3896.1  3887.7    8.43
 2020 179    25    1000    8783   39149       0   39149   38904   245.1    8.00   876.7  3895.8    0.00  3895.8  3887.5    8.31
 2020 180    26    1000    8784   39142       0   39142   38903   238.4    8.00   876.7  3895.5    0.00  3895.5  3887.3    8.19
 2020 181    27    1000    8784   39135       0   39135   38902   232.1    8.00   876.7  3895.2    0.00  3895.2  3887.2    8.07
 2020 182    28    1000    8785   39125       0   39125   38902   223.3    8.00   876.7  3894.9    0.00  3894.9  3887.0    7.90
 2020 183    29    1000    8785   39116       0   39116   38901   214.5    8.00   876.7  3894.5    0.00  3894.5  3886.8    7.72
 2020 184    30    1000    8785   39107       0   39107   38900   206.6    8.00   876.7  3894.2    0.00  3894.2  3886.6    7.55
 2020 185    31    1000    8786   39099       0   39099   38899   199.5    8.00   876.7  3893.8    0.00  3893.8  3886.5    7.39
 2020 186    32    1000    8786   39092       0   39092   38898   193.3    8.00   876.6  3893.5    0.00  3893.5  3886.3    7.24
 2020 187    33    1000    8786   39085       0   39085   38897   187.8    8.00   876.6  3893.2    0.00  3893.2  3886.1    7.10
 2020 188    34    1000    8786   39079       0   39079   38896   183.2    8.00   876.6  3892.9    0.00  3892.9  3885.9    6.98
 2020 189    35    1000    8787   39074       0   39074   38895   179.0    8.00   876.6  3892.6    0.00  3892.6  3885.7    6.87
 2020 190    36    1000    8787   39069       0   39069   38894   175.2    8.00   876.6  3892.3    0.00  3892.3  3885.6    6.77
 2020 191    37    1000    8787   39064       0   39064   38892   171.7    8.00   876.5  3892.0    0.00  3892.0  3885.4    6.67
 2020 192    38    1000    8787   39059       0   39059   38891   168.4    8.00   876.5  3891.8    0.00  3891.8  3885.2    6.58
 2020 193    39    1000    8787   39055       0   39055   38889   165.3    8.00   876.5  3891.5    0.00  3891.5  3885.0    6.49
 2020 194    40    1000    8787   39050       0   39050   38888   162.4    8.00   876.5  3891.2    0.00  3891.2  3884.8    6.41
 2020 195    41    1000    8786   39046       0   39046   38886   159.7    8.00   876.4  3891.0    0.00  3891.0  3884.6    6.33
 2020 196    42    1000    8786   39042       0   39042   38885   157.3    8.00   876.4  3890.7    0.00  3890.7  3884.5    6.25
 2020 197    43    1000    8786   39037       0   39037   38884   153.8    8.00   876.4  3890.4    0.00  3890.4  3884.3    6.15
 2020 198    44    1000    8786   39033       0   39033   38882   150.7    8.00   876.4  3890.2    0.00  3890.2  3884.1    6.06
 2020 199    45    1000    8786   39029       0   39029   38881   148.0    8.00   876.3  3889.9    0.00  3889.9  3883.9    5.97
 2020 200    46    1000    8786   39024       0   39024   38879   144.5    8.00   876.3  3889.6    0.00  3889.6  3883.8    5.87
 2020 201    47    1000    8786   39019       0   39019   38878   141.0    8.00   876.3  3889.3    0.00  3889.3  3883.6    5.76
 2020 202    48    1000    8786   39014       0   39014   38877   137.4    8.00   876.3  3889.0    0.00  3889.0  3883.4    5.64
 2020 203    49    1000    8786   39009       0   39009   38875   133.8    8.00   876.2  3888.7    0.00  3888.7  3883.2    5.52
 2020 204    50    1000    8786   39005       0   39005   38874   130.6    8.00   876.2  3888.5    0.00  3888.5  3883.0    5.41
 2020 205    51    1000    8786   39000       0   39000   38872   127.8    8.00   876.2  3888.2    0.00  3888.2  3882.9    5.32
 2020 206    52    1000    8786   38996       0   38996   38871   125.3    8.00   876.2  3887.9    0.00  3887.9  3882.7    5.23
 2020 207    53    1000    8786   38992       0   38992   38869   122.8    8.00   876.1  3887.7    0.00  3887.7  3882.5    5.15
 2020 208    54    1000    8786   38988       0   38988   38868   120.4    8.00   876.1  3887.4    0.00  3887.4  3882.3    5.06
 2020 209    55    1000    8786   38984       0   38984   38866   118.0    8.00   876.1  3887.1    0.00  3887.1  3882.1    4.98
 2020 210    56    1000    8785   38980       0   38980   38864   115.5    8.00   876.0  3886.8    0.00  3886.8  3881.9    4.89
 2020 211    57    1000    8785   38976       0   38976   38863   112.9    8.00   876.0  3886.5    0.00  3886.5  3881.7    4.79
 2020 212    58    1000    8785   38972       0   38972   38861   110.7    8.00   876.0  3886.3    0.00  3886.3  3881.6    4.71
 2020 213    59    1000    8785   38969       0   38969   38860   108.5    8.00   876.0  3886.0    0.00  3886.0  3881.4    4.64
 2020 214    60    1000    8785   38965       0   38965   38859   106.5    8.00   875.9  3885.8    0.00  3885.8  3881.2    4.56
 2020 215    61    1000    8785   38962       0   38962   38857   104.7    8.00   875.9  3885.6    0.00  3885.6  3881.1    4.49
 2020 216    62    1000    8785   38959       0   38959   38856   103.1    8.00   875.9  3885.4    0.00  3885.4  3880.9    4.43
 2020 217    63    1000    8784   38956       0   38956   38854   101.4    8.00   875.9  3885.1    0.00  3885.1  3880.8    4.37
 2020 218    64    1000    8784   38953       0   38953   38853    99.6    8.00   875.8  3884.9    0.00  3884.9  3880.6    4.30
 2020 219    65    1000    8784   38949       0   38949   38851    97.8    8.00   875.8  3884.7    0.00  3884.7  3880.4    4.23
 2020 220    66    1000    8784   38946       0   38946   38850    96.4    8.00   875.8  3884.4    0.00  3884.4  3880.3    4.18
 2020 221    67    1000    8784   38943       0   38943   38849    94.7    8.00   875.7  3884.2    0.00  3884.2  3880.1    4.12
 2020 222    68    1000    8784   38940       0   38940   38847    92.9    8.00   875.7  3884.0    0.00  3884.0  3879.9    4.05
 2020 223    69    1000    8783   38937       0   38937   38845    91.3    8.00   875.7  3883.7    0.00  3883.7  3879.7    3.98
 2020 224    70    1000    8783   38933       0   38933   38843    89.8    8.00   875.6  3883.5    0.00  3883.5  3879.5    3.92
 2020 225    71    1000    8783   38930       0   38930   38842    88.3    8.00   875.6  3883.2    0.00  3883.2  3879.3    3.86
 2020 226    72    1000    8783   38927       0   38927   38840    86.9    8.00   875.6  3883.0    0.00  3883.0  3879.1    3.81
 2020 227    73    1000    8782   38924       0   38924   38838    85.7    8.00   875.5  3882.7    0.00  3882.7  3879.0    3.76
 2020 228    74    1000    8782   38921       0   38921   38836    84.6    8.00   875.5  3882.5    0.00  3882.5  3878.8    3.71
 2020 229    75    1000    8782   38918       0   38918   38835    83.6    8.00   875.5  3882.3    0.00  3882.3  3878.6    3.67
 2020 230    76    1000    8782   38915       0   38915   38833    82.1    8.00   875.4  3882.0    0.00  3882.0  3878.4    3.61
 2020 231    77    1000    8781   38912       0   38912   38831    80.9    8.00   875.4  3881.8    0.00  3881.8  3878.2    3.56
 2020 232    78    1000    8781   38909       0   38909   38829    79.5    8.00   875.4  3881.5    0.00  3881.5  3878.0    3.51
 2020 233    79    1000    8781   38906       0   38906   38827    78.1    8.00   875.3  3881.3    0.00  3881.3  3877.8    3.45
 2020 234    80    1000    8781   38903       0   38903   38826    76.9    8.00   875.3  3881.0    0.00  3881.0  3877.6    3.40
 2020 235    81    1000    8780   38900       0   38900   38824    75.8    8.00   875.3  3880.8    0.00  3880.8  3877.4    3.35
 2020 236    82    1000    8780   38897       0   38897   38822    74.7    8.00   875.2  3880.5    0.00  3880.5  3877.2    3.31
 2020 237    83    1000    8780   38894       0   38894   38820    73.5    8.00   875.2  3880.3    0.00  3880.3  3877.0    3.26
 2020 238    84    1000    8779   38891       0   38891   38818    72.4    8.00   875.2  3880.0    0.00  3880.0  3876.8    3.21
 2020 239    85    1000    8779   38888       0   38888   38816    71.2    8.00   875.1  3879.8    0.00  3879.8  3876.6    3.16
 2020 240    86    1000    8779   38884       0   38884   38814    70.0    8.00   875.1  3879.5    0.00  3879.5  3876.4    3.11
 2020 241    87    1000    8778   38881       0   38881   38812    68.9    8.00   875.0  3879.3    0.00  3879.3  3876.2    3.07
 2020 242    88    1000    8778   38878       0   38878   38810    68.1    8.00   875.0  3879.0    0.00  3879.0  3876.0    3.03
 2020 243    89    1000    8778   38876       0   38876   38808    67.3    8.00   875.0  3878.8    0.00  3878.8  3875.8    3.00
 2020 244    90    1000    8777   38873       0   38873   38807    66.4    8.00   874.9  3878.5    0.00  3878.5  3875.6    2.96
 2020 245    91    1000    8777   38870       0   38870   38805    65.6    8.00   874.9  3878.3    0.00  3878.3  3875.4    2.92
 2020 246    92    1000    8777   38868       0   38868   38803    64.8    8.00   874.9  3878.1    0.00  3878.1  3875.2    2.89
 2020 247    93    1000    8776   38866       0   38866   38801    64.1    8.00   874.8  3877.9    0.00  3877.9  3875.0    2.86
 2020 248    94    1000    8776   38863       0   38863   38800    63.4    8.00   874.8  3877.7    0.00  3877.7  3874.9    2.83
 2020 249    95    1000    8776   38861       0   38861   38798    62.7    8.00   874.8  3877.5    0.00  3877.5  3874.7    2.80
 2020 250    96    1000    8776   38859       0   38858   38796    62.0    8.00   874.7  3877.3    0.00  3877.3  3874.5    2.77
 2020 251    97    1000    8775   38857       1   38856   38795    61.3    8.00   874.7  3877.1    0.05  3877.1  3874.3    2.74
 2020 252    98    1000    8775   38854       1   38853   38793    60.6    8.00   874.7  3876.9    0.05  3876.8  3874.1    2.71
 2020 253    99    1000    8775   38852       1   38851   38791    60.0    8.00   874.6  3876.7    0.05  3876.6  3874.0    2.68
 2020 254   100    1000    8774   38850       1   38849   38790    59.6    8.00   874.6  3876.5    0.05  3876.5  3873.8    2.66
 2020 255   101    1000    8774   38848       1   38848   38788    59.3    8.00   874.6  3876.4    0.05  3876.3  3873.7    2.65
 2020 256   102    1000    8774   38847       1   38846   38787    59.0    8.00   874.6  3876.3    0.05  3876.2  3873.6    2.64
 2020 257   103    1000    8774   38846       1   38845   38787    58.8    8.00   874.5  3876.2    0.05  3876.1  3873.5    2.63
 2020 258   104    1000    8774   38845       1   38844   38786    58.5    8.00   874.5  3876.1    0.05  3876.0  3873.4    2.61
 2020 259   105    1000    8774   38843       1   38842   38784    58.0    8.00   874.5  3875.9    0.06  3875.9  3873.3    2.59
 2020 260   106    1000    8773   38841       1   38840   38783    57.6    8.00   874.5  3875.7    0.06  3875.7  3873.1    2.57
 2020 261   107    1000    8773   38839       1   38838   38781    57.1    8.00   874.4  3875.5    0.06  3875.5  3872.9    2.55
 2020 262   108    1000    8773   38837       1   38836   38780    56.6    8.00   874.4  3875.4    0.06  3875.3  3872.8    2.53
 2020 263   109    1000    8772   38835       1   38834   38778    56.2    8.00   874.4  3875.2    0.06  3875.1  3872.6    2.51
 2020 264   110    1000    8772   38833       1   38832   38776    55.7    8.00   874.3  3875.0    0.06  3874.9  3872.4    2.49
 2020 265   111    1000    8772   38831       1   38830   38775    55.3    8.00   874.3  3874.8    0.06  3874.7  3872.3    2.47
 2020 266   112    1000    8772   38829       1   38828   38773    54.8    8.00   874.3  3874.6    0.06  3874.6  3872.1    2.45
 2020 267   113    1000    8771   38827       1   38826   38771    54.4    8.00   874.2  3874.4    0.06  3874.4  3871.9    2.43
 2020 268   114    1000    8771   38825       1   38824   38770    53.9    8.00   874.2  3874.2    0.06  3874.2  3871.8    2.40
 2020 269   115    1000    8771   38823       1   38821   38768    53.4    8.00   874.2  3874.0    0.07  3874.0  3871.6    2.38
 2020 270   116    1000    8770   38820       1   38819   38766    53.1    8.00   874.1  3873.8    0.07  3873.8  3871.4    2.36
 2020 271   117    1000    8770   38818       1   38817   38764    52.5    8.00   874.1  3873.6    0.07  3873.5  3871.2    2.34
 2020 272   118    1000    8770   38816       1   38815   38763    52.1    8.00   874.1  3873.4    0.07  3873.3  3871.0    2.31
 2020 273   119    1000    8769   38814       1   38812   38761    51.6    8.00   874.0  3873.2    0.07  3873.1  3870.8    2.29
 2020 274   120    1000    8769   38812       1   38810   38759    51.1    8.00   874.0  3873.0    0.07  3873.0  3870.7    2.28
 2020 275   121    1000    8769   38810       1   38808   38758    50.8    8.00   874.0  3872.9    0.07  3872.8  3870.5    2.26
 2020 276   122    1000    8769   38808       1   38807   38756    50.5    8.00   874.0  3872.7    0.07  3872.6  3870.4    2.24
 2020 277   123    1000    8768   38806       1   38805   38755    50.2    8.00   873.9  3872.6    0.07  3872.5  3870.2    2.23
 2020 278   124    1000    8768   38805       1   38804   38754    49.8    8.00   873.9  3872.4    0.07  3872.3  3870.1    2.22
 2020 279   125    1000    8768   38803       1   38802   38752    49.6    8.00   873.9  3872.2    0.07  3872.2  3870.0    2.20
 2020 280   126    1000    8768   38802       1   38800   38751    49.4    8.00   873.8  3872.1    0.07  3872.0  3869.8    2.19
 2020 281   127    1000    8767   38800       1   38799   38750    49.0    8.00   873.8  3871.9    0.08  3871.9  3869.7    2.18
 2020 282   128    1000    8767   38798       1   38797   38748    48.7    8.00   873.8  3871.8    0.08  3871.7  3869.5    2.16
 2020 283   129    1000    8767   38796       1   38795   38746    48.3    8.00   873.8  3871.6    0.08  3871.5  3869.3    2.14
 2020 284   130    1000    8766   38794       1   38792   38744    48.0    8.00   873.7  3871.4    0.08  3871.3  3869.2    2.13
 2020 285   131    1000    8766   38792       2   38790   38743    47.6    8.00   873.7  3871.2    0.09  3871.1  3869.0    2.11
 2020 286   132    1000    8766   38790       2   38788   38741    47.3    8.00   873.6  3871.0    0.11  3870.9  3868.8    2.09
 2020 287   133    1000    8765   38788       2   38786   38739    46.9    8.00   873.6  3870.8    0.11  3870.7  3868.6    2.07
 2020 288   134    1000    8765   38786       2   38784   38737    46.6    8.00   873.6  3870.6    0.11  3870.5  3868.4    2.06
 2020 289   135    1000    8765   38784       2   38782   38736    46.3    8.00   873.5  3870.4    0.12  3870.3  3868.3    2.05
 2020 290   136    1000    8765   38783       2   38780   38734    46.0    8.00   873.5  3870.3    0.12  3870.2  3868.1    2.03

*DSSAT Cropping System Model Ver. 4.7.5.035 -develop  MAY 07, 2021 11:55:39

*RUN   2        : 20 RAINFED BRAGG          CRGRO047 UFGA7801    2
 MODEL          : CRGRO047 - Soybean
 EXPERIMENT     : UFGA7801 SB BRAGG, IRRIGATED & NON-IRRIGATED
 DATA PATH      :
 TREATMENT  2   : 20 RAINFED BRAGG          CRGRO047
  
@YEAR DOY   DAS    OMAC    SCDD    SOCD    SC0D    SCTD   SOMCT    LCTD    ONAC    SNDD    SOND    SN0D    SNTD   SOMNT    LNTD
 2020 154     0       0    8775   38959       0   38959   38919    40.0    0.00   877.5  3892.7    0.00  3892.7  3891.9    0.75
 2020 155     1       0    8775   38955       0   38955   38917    37.6    0.00   877.5  3892.5    0.00  3892.5  3891.7    0.78
 2020 156     2       0    8774   38951       0   38951   38915    35.4    0.00   877.4  3892.2    0.00  3892.2  3891.4    0.80
 2020 157     3       0    8774   38947       0   38947   38913    33.5    0.00   877.4  3892.0    0.00  3892.0  3891.2    0.81
 2020 158     4       0    8773   38943       0   38943   38911    31.9    0.00   877.3  3891.8    0.00  3891.8  3891.0    0.81
 2020 159     5       0    8773   38940       0   38940   38909    30.5    0.00   877.3  3891.6    0.00  3891.6  3890.8    0.81
 2020 160     6       0    8772   38936       0   38936   38907    29.3    0.00   877.2  3891.3    0.00  3891.3  3890.5    0.80
 2020 161     7       0    8772   38933       0   38933   38905    28.1    0.00   877.2  3891.1    0.00  3891.1  3890.3    0.79
 2020 162     8       0    8771   38930       0   38930   38903    27.3    0.00   877.1  3890.9    0.00  3890.9  3890.1    0.80
 2020 163     9       0    8771   38928       0   38928   38901    26.6    0.00   877.1  3890.7    0.00  3890.7  3889.9    0.81
 2020 164    10       0    8771   38925       0   38925   38899    26.0    0.00   877.0  3890.5    0.00  3890.5  3889.7    0.81
 2020 165    11       0    8770   38923       0   38923   38897    25.4    0.00   877.0  3890.3    0.00  3890.3  3889.5    0.81
 2020 166    12    1000    8770   39320       0   39320   38895   424.9    8.00   876.9  3898.1    0.00  3898.1  3889.3    8.82
 2020 167    13    1000    8769   39303       0   39303   38897   406.6    8.00   876.7  3898.2    0.00  3898.2  3889.2    8.99
 2020 168    14    1000    8770   39288       0   39288   38898   389.4    8.00   876.7  3898.1    0.00  3898.1  3889.0    9.11
 2020 169    15    1000    8772   39273       0   39273   38899   373.9    8.00   876.7  3898.0    0.00  3898.0  3888.9    9.17
 2020 170    16    1000    8773   39260       0   39260   38900   359.9    8.00   876.7  3897.9    0.00  3897.9  3888.7    9.20
 2020 171    17    1000    8774   39248       0   39248   38900   347.7    8.00   876.7  3897.8    0.00  3897.8  3888.6    9.19
 2020 172    18    1000    8775   39237       0   39237   38900   336.5    8.00   876.7  3897.6    0.00  3897.6  3888.4    9.17
 2020 173    19    1000    8776   39227       0   39227   38900   326.8    8.00   876.7  3897.4    0.00  3897.4  3888.3    9.13
 2020 174    20    1000    8777   39218       0   39218   38900   318.1    8.00   876.7  3897.2    0.00  3897.2  3888.1    9.08
 2020 175    21    1000    8778   39210       0   39210   38900   310.5    8.00   876.7  3897.0    0.00  3897.0  3888.0    9.03
 2020 176    22    1000    8778   39203       0   39203   38900   303.6    8.00   876.7  3896.9    0.00  3896.9  3887.9    8.98
 2020 177    23    1000    8779   39196       0   39196   38899   296.9    8.00   876.7  3896.7    0.00  3896.7  3887.7    8.92
 2020 178    24    1000    8779   39189       0   39189   38899   290.4    8.00   876.7  3896.4    0.00  3896.4  3887.6    8.85
 2020 179    25    1000    8780   39182       0   39182   38898   284.3    8.00   876.7  3896.2    0.00  3896.2  3887.4    8.78
 2020 180    26    1000    8780   39175       0   39175   38897   278.5    8.00   876.6  3896.0    0.00  3896.0  3887.3    8.71
 2020 181    27    1000    8780   39169       0   39169   38896   272.8    8.00   876.6  3895.7    0.00  3895.7  3887.1    8.63
 2020 182    28    1000    8781   39163       0   39163   38895   267.6    8.00   876.6  3895.5    0.00  3895.5  3886.9    8.56
 2020 183    29    1000    8781   39157       0   39157   38894   262.8    8.00   876.6  3895.2    0.00  3895.2  3886.7    8.48
 2020 184    30    1000    8781   39151       0   39151   38893   258.3    8.00   876.6  3895.0    0.00  3895.0  3886.6    8.41
 2020 185    31    1000    8781   39146       0   39146   38892   254.2    8.00   876.6  3894.7    0.00  3894.7  3886.4    8.34
 2020 186    32    1000    8782   39141       0   39141   38890   250.3    8.00   876.6  3894.5    0.00  3894.5  3886.2    8.27
 2020 187    33    1000    8782   39136       0   39136   38889   247.0    8.00   876.5  3894.3    0.00  3894.3  3886.1    8.20
 2020 188    34    1000    8782   39132       0   39132   38888   244.0    8.00   876.5  3894.0    0.00  3894.0  3885.9    8.15
 2020 189    35    1000    8782   39128       0   39128   38887   241.2    8.00   876.5  3893.8    0.00  3893.8  3885.7    8.09
 2020 190    36    1000    8782   39124       0   39124   38885   238.6    8.00   876.5  3893.6    0.00  3893.6  3885.6    8.04
 2020 191    37    1000    8782   39120       0   39120   38884   236.0    8.00   876.5  3893.4    0.00  3893.4  3885.4    7.98
 2020 192    38    1000    8782   39116       0   39116   38883   233.7    8.00   876.5  3893.2    0.00  3893.2  3885.2    7.93
 2020 193    39    1000    8782   39113       0   39113   38881   231.4    8.00   876.4  3892.9    0.00  3892.9  3885.1    7.87
 2020 194    40    1000    8782   39109       0   39109   38880   229.1    8.00   876.4  3892.7    0.00  3892.7  3884.9    7.82
 2020 195    41    1000    8782   39106       0   39106   38879   226.9    8.00   876.4  3892.5    0.00  3892.5  3884.7    7.77
 2020 196    42    1000    8782   39102       0   39102   38877   224.9    8.00   876.4  3892.3    0.00  3892.3  3884.6    7.72
 2020 197    43    1000    8782   39097       0   39097   38876   220.2    8.00   876.4  3892.1    0.00  3892.1  3884.4    7.64
 2020 198    44    1000    8782   39091       0   39091   38875   216.0    8.00   876.3  3891.8    0.00  3891.8  3884.3    7.57
 2020 199    45    1000    8783   39087       0   39087   38874   212.3    8.00   876.3  3891.6    0.00  3891.6  3884.1    7.51
 2020 200    46    1000    8783   39080       0   39080   38873   206.4    8.00   876.3  3891.3    0.00  3891.3  3883.9    7.40
 2020 201    47    1000    8783   39073       0   39073   38873   200.2    8.00   876.3  3891.0    0.00  3891.0  3883.8    7.27
 2020 202    48    1000    8783   39066       0   39066   38872   193.7    8.00   876.3  3890.7    0.00  3890.7  3883.6    7.13
 2020 203    49    1000    8784   39058       0   39058   38871   187.4    8.00   876.3  3890.4    0.00  3890.4  3883.5    6.98
 2020 204    50    1000    8784   39052       0   39052   38870   182.1    8.00   876.3  3890.1    0.00  3890.1  3883.3    6.85
 2020 205    51    1000    8784   39046       0   39046   38869   177.4    8.00   876.2  3889.9    0.00  3889.9  3883.1    6.73
 2020 206    52    1000    8784   39041       0   39041   38868   173.2    8.00   876.2  3889.6    0.00  3889.6  3883.0    6.62
 2020 207    53    1000    8784   39036       0   39036   38867   169.2    8.00   876.2  3889.3    0.00  3889.3  3882.8    6.51
 2020 208    54    1000    8784   39031       0   39031   38865   165.4    8.00   876.2  3889.0    0.00  3889.0  3882.6    6.41
 2020 209    55    1000    8784   39025       0   39025   38864   161.2    8.00   876.1  3888.7    0.00  3888.7  3882.4    6.29
 2020 210    56    1000    8784   39020       0   39020   38863   157.0    8.00   876.1  3888.4    0.00  3888.4  3882.2    6.18
 2020 211    57    1000    8784   39014       0   39014   38861   152.7    8.00   876.1  3888.1    0.00  3888.1  3882.1    6.05
 2020 212    58    1000    8784   39009       0   39009   38860   149.1    8.00   876.1  3887.8    0.00  3887.8  3881.9    5.95
 2020 213    59    1000    8784   39005       0   39005   38859   145.6    8.00   876.1  3887.6    0.00  3887.6  3881.7    5.84
 2020 214    60    1000    8784   39000       0   39000   38858   142.3    8.00   876.0  3887.3    0.00  3887.3  3881.6    5.74
 2020 215    61    1000    8784   38996       0   38996   38857   139.4    8.00   876.0  3887.1    0.00  3887.1  3881.4    5.65
 2020 216    62    1000    8784   38992       0   38992   38855   136.9    8.00   876.0  3886.8    0.00  3886.8  3881.3    5.57
 2020 217    63    1000    8784   38988       0   38988   38854   134.2    8.00   876.0  3886.6    0.00  3886.6  3881.1    5.48
 2020 218    64    1000    8784   38984       0   38984   38853   131.4    8.00   876.0  3886.4    0.00  3886.4  3881.0    5.39
 2020 219    65    1000    8784   38980       0   38980   38852   128.5    8.00   875.9  3886.1    0.00  3886.1  3880.8    5.30
 2020 220    66    1000    8784   38977       0   38977   38850   126.3    8.00   875.9  3885.9    0.00  3885.9  3880.7    5.23
 2020 221    67    1000    8784   38973       0   38973   38849   123.6    8.00   875.9  3885.6    0.00  3885.6  3880.5    5.14
 2020 222    68    1000    8784   38969       0   38969   38848   120.8    8.00   875.9  3885.4    0.00  3885.4  3880.3    5.04
 2020 223    69    1000    8783   38965       0   38965   38846   118.3    8.00   875.8  3885.1    0.00  3885.1  3880.1    4.95
 2020 224    70    1000    8783   38961       0   38961   38845   115.9    8.00   875.8  3884.8    0.00  3884.8  3880.0    4.87
 2020 225    71    1000    8783   38957       0   38957   38843   113.6    8.00   875.8  3884.6    0.00  3884.6  3879.8    4.79
 2020 226    72    1000    8783   38953       0   38953   38841   111.5    8.00   875.7  3884.3    0.00  3884.3  3879.6    4.72
 2020 227    73    1000    8783   38949       0   38949   38840   109.7    8.00   875.7  3884.0    0.00  3884.0  3879.4    4.65
 2020 228    74    1000    8783   38946       0   38946   38838   108.0    8.00   875.7  3883.8    0.00  3883.8  3879.2    4.59
 2020 229    75    1000    8782   38943       0   38943   38836   106.5    8.00   875.6  3883.5    0.00  3883.5  3879.0    4.53
 2020 230    76    1000    8782   38939       0   38939   38835   104.2    8.00   875.6  3883.3    0.00  3883.3  3878.8    4.45
 2020 231    77    1000    8782   38935       0   38935   38833   102.3    8.00   875.6  3883.0    0.00  3883.0  3878.6    4.38
 2020 232    78    1000    8782   38932       0   38932   38831   100.5    8.00   875.6  3882.8    0.00  3882.8  3878.5    4.31
 2020 233    79    1000    8782   38929       0   38929   38830    98.9    8.00   875.5  3882.5    0.00  3882.5  3878.3    4.25
 2020 234    80    1000    8781   38925       0   38925   38828    97.4    8.00   875.5  3882.3    0.00  3882.3  3878.1    4.20
 2020 235    81    1000    8781   38922       0   38922   38826    96.0    8.00   875.5  3882.0    0.00  3882.0  3877.9    4.14
 2020 236    82    1000    8781   38919       0   38919   38825    94.8    8.00   875.4  3881.8    0.00  3881.8  3877.7    4.10
 2020 237    83    1000    8781   38916       0   38916   38823    93.6    8.00   875.4  3881.6    0.00  3881.6  3877.5    4.05
 2020 238    84    1000    8780   38914       0   38914   38821    92.5    8.00   875.4  3881.3    0.00  3881.3  3877.3    4.01
 2020 239    85    1000    8780   38911       0   38911   38819    91.4    8.00   875.3  3881.1    0.00  3881.1  3877.1    3.97
 2020 240    86    1000    8780   38908       0   38908   38817    90.4    8.00   875.3  3880.9    0.00  3880.9  3876.9    3.92
 2020 241    87    1000    8779   38905       0   38905   38816    89.4    8.00   875.3  3880.6    0.00  3880.6  3876.7    3.89
 2020 242    88    1000    8779   38902       0   38902   38814    88.0    8.00   875.2  3880.4    0.00  3880.4  3876.5    3.83
 2020 243    89    1000    8779   38898       0   38898   38812    86.6    8.00   875.2  3880.1    0.00  3880.1  3876.3    3.77
 2020 244    90    1000    8779   38895       0   38895   38810    85.0    8.00   875.1  3879.9    0.00  3879.9  3876.1    3.71
 2020 245    91    1000    8778   38892       0   38892   38808    83.5    8.00   875.1  3879.6    0.00  3879.6  3876.0    3.65
 2020 246    92    1000    8778   38889       0   38889   38807    82.3    8.00   875.1  3879.4    0.00  3879.4  3875.8    3.61
 2020 247    93    1000    8778   38887       0   38887   38805    81.3    8.00   875.1  3879.2    0.00  3879.2  3875.6    3.56
 2020 248    94    1000    8778   38884       0   38884   38804    80.3    8.00   875.0  3879.0    0.00  3879.0  3875.5    3.52
 2020 249    95    1000    8777   38882       0   38881   38802    79.3    8.00   875.0  3878.8    0.00  3878.8  3875.3    3.49
 2020 250    96    1000    8777   38879       0   38879   38801    78.3    8.00   875.0  3878.6    0.00  3878.6  3875.1    3.45
 2020 251    97    1000    8777   38877       1   38876   38799    77.3    8.00   874.9  3878.4    0.05  3878.3  3874.9    3.40
 2020 252    98    1000    8777   38874       1   38873   38797    76.2    8.00   874.9  3878.1    0.05  3878.1  3874.7    3.36
 2020 253    99    1000    8776   38871       1   38870   38795    75.2    8.00   874.9  3877.9    0.05  3877.9  3874.6    3.32
 2020 254   100    1000    8776   38869       1   38868   38794    74.5    8.00   874.8  3877.7    0.05  3877.7  3874.4    3.29
 2020 255   101    1000    8776   38867       1   38867   38793    73.9    8.00   874.8  3877.6    0.05  3877.6  3874.3    3.26
 2020 256   102    1000    8776   38866       1   38865   38792    73.5    8.00   874.8  3877.5    0.05  3877.4  3874.2    3.24
 2020 257   103    1000    8776   38865       1   38864   38791    73.0    8.00   874.8  3877.4    0.05  3877.3  3874.1    3.23
 2020 258   104    1000    8776   38863       1   38862   38790    72.4    8.00   874.8  3877.3    0.06  3877.2  3874.0    3.20
 2020 259   105    1000    8775   38861       1   38860   38789    71.7    8.00   874.7  3877.1    0.06  3877.0  3873.9    3.17
 2020 260   106    1000    8775   38859       1   38858   38787    70.8    8.00   874.7  3876.9    0.06  3876.8  3873.7    3.13
 2020 261   107    1000    8775   38856       1   38856   38786    69.9    8.00   874.7  3876.7    0.06  3876.6  3873.5    3.10
 2020 262   108    1000    8775   38854       1   38853   38784    69.1    8.00   874.7  3876.5    0.06  3876.4  3873.4    3.06
 2020 263   109    1000    8774   38852       1   38851   38783    68.3    8.00   874.6  3876.3    0.06  3876.2  3873.2    3.03
 2020 264   110    1000    8774   38850       1   38849   38781    67.5    8.00   874.6  3876.1    0.06  3876.1  3873.1    2.99
 2020 265   111    1000    8774   38847       1   38846   38780    66.7    8.00   874.6  3875.9    0.06  3875.9  3872.9    2.96
 2020 266   112    1000    8774   38845       1   38844   38778    65.9    8.00   874.5  3875.7    0.07  3875.7  3872.7    2.92
 2020 267   113    1000    8773   38843       1   38842   38777    65.2    8.00   874.5  3875.5    0.07  3875.5  3872.6    2.89
 2020 268   114    1000    8773   38841       1   38839   38775    64.5    8.00   874.5  3875.3    0.07  3875.3  3872.4    2.86
 2020 269   115    1000    8773   38838       1   38837   38773    63.6    8.00   874.4  3875.1    0.07  3875.0  3872.2    2.82
 2020 270   116    1000    8772   38836       1   38834   38771    62.9    8.00   874.4  3874.9    0.07  3874.8  3872.0    2.79
 2020 271   117    1000    8772   38833       1   38832   38770    62.1    8.00   874.4  3874.7    0.08  3874.6  3871.8    2.75
 2020 272   118    1000    8772   38831       1   38829   38768    61.3    8.00   874.3  3874.4    0.08  3874.4  3871.7    2.72
 2020 273   119    1000    8772   38828       1   38827   38766    60.6    8.00   874.3  3874.2    0.08  3874.2  3871.5    2.69
 2020 274   120    1000    8771   38826       1   38825   38765    60.1    8.00   874.3  3874.1    0.08  3874.0  3871.3    2.66
 2020 275   121    1000    8771   38824       1   38823   38763    59.5    8.00   874.2  3873.9    0.08  3873.8  3871.2    2.64
 2020 276   122    1000    8771   38822       1   38821   38762    59.0    8.00   874.2  3873.7    0.08  3873.6  3871.0    2.62
 2020 277   123    1000    8771   38821       1   38819   38761    58.6    8.00   874.2  3873.6    0.08  3873.5  3870.9    2.60
 2020 278   124    1000    8770   38819       1   38817   38759    58.1    8.00   874.2  3873.4    0.08  3873.3  3870.8    2.58
 2020 279   125    1000    8770   38817       1   38816   38758    57.7    8.00   874.1  3873.3    0.08  3873.2  3870.6    2.56
 2020 280   126    1000    8770   38815       2   38814   38757    57.3    8.00   874.1  3873.1    0.08  3873.0  3870.5    2.54
 2020 281   127    1000    8770   38814       2   38812   38755    56.9    8.00   874.1  3872.9    0.09  3872.8  3870.3    2.52
 2020 282   128    1000    8769   38812       2   38810   38754    56.3    8.00   874.1  3872.8    0.09  3872.7  3870.2    2.50
 2020 283   129    1000    8769   38810       2   38808   38752    55.8    8.00   874.0  3872.6    0.09  3872.5  3870.0    2.48
 2020 284   130    1000    8769   38808       2   38806   38750    55.4    8.00   874.0  3872.4    0.10  3872.3  3869.8    2.46
 2020 285   131    1000    8768   38805       2   38803   38749    54.8    8.00   874.0  3872.2    0.11  3872.1  3869.6    2.43
 2020 286   132    1000    8768   38803       2   38801   38747    54.2    8.00   873.9  3872.0    0.13  3871.8  3869.4    2.41
 2020 287   133    1000    8768   38801       2   38799   38745    53.6    8.00   873.9  3871.8    0.13  3871.6  3869.3    2.38
 2020 288   134    1000    8768   38799       3   38797   38743    53.2    8.00   873.9  3871.6    0.14  3871.5  3869.1    2.37
 2020 289   135    1000    8767   38797       3   38795   38742    52.8    8.00   873.8  3871.4    0.14  3871.3  3868.9    2.35
 2020 290   136    1000    8767   38796       3   38793   38740    52.4    8.00   873.8  3871.3    0.14  3871.1  3868.8    2.33
