*SOIL INORGANIC N BALANCE

*DSSAT Cropping System Model Ver. 4.7.5.035 -develop  JUN 02, 2021 09:26:05

*RUN   1        : 20 IRRIG, light rate,freq CRGRO047 UFGA7801    1
 MODEL          : CRGRO047 - Soybean
 EXPERIMENT     : UFGA7801 SB BRAGG, IRRIGATED & NON-IRRIGATED
 DATA PATH      :
 TREATMENT  1   : 20 IRRIG, light rate,freq CRGRO047
  


!SOIL INORGANIC N BALANCE                         Initial               Final
!                                                Year/Doy            Year/Doy
!                                                2020/155            2020/290
!                                               (kg[N]/ha)          (kg[N]/ha)
! Soil N state variables:
!   Soil NO3                                        22.83               42.21
!   Soil NH4                                        16.49                0.71
!   Soil Urea                                        0.00                0.00
!   Soil N gases                                     0.00                0.14
!   Unreleased fert N                                                    0.00

! N additions:
!   Fertilizer N                                     0.00
!   Mineralized N                                   31.38

! N subtractions:
!   N immobilized                                                        0.41
!   N leached                                                           24.73
!   N loss to tile drainage                                              0.00
!   N Uptake From Soil                                                   1.83
!   NH3 loss                                                             0.00
!   N2O loss                                                             0.06
!   N2 loss                                                              0.23
!   NO loss                                                              0.37

!   Total N balance                                 70.69               70.69
!   Balance                                                             0.000

!===============================================================================

*DSSAT Cropping System Model Ver. 4.7.5.035 -develop  JUN 02, 2021 09:26:05

*RUN   2        : 20 RAINFED BRAGG          CRGRO047 UFGA7801    2
 MODEL          : CRGRO047 - Soybean
 EXPERIMENT     : UFGA7801 SB BRAGG, IRRIGATED & NON-IRRIGATED
 DATA PATH      :
 TREATMENT  2   : 20 RAINFED BRAGG          CRGRO047
  


!SOIL INORGANIC N BALANCE                         Initial               Final
!                                                Year/Doy            Year/Doy
!                                                2020/155            2020/290
!                                               (kg[N]/ha)          (kg[N]/ha)
! Soil N state variables:
!   Soil NO3                                        22.83               54.21
!   Soil NH4                                        16.49                0.72
!   Soil Urea                                        0.00                0.00
!   Soil N gases                                     0.00                0.09
!   Unreleased fert N                                                    0.00

! N additions:
!   Fertilizer N                                     0.00
!   Mineralized N                                   30.36

! N subtractions:
!   N immobilized                                                        0.34
!   N leached                                                            8.80
!   N loss to tile drainage                                              0.00
!   N Uptake From Soil                                                   5.03
!   NH3 loss                                                             0.00
!   N2O loss                                                             0.05
!   N2 loss                                                              0.10
!   NO loss                                                              0.34

!   Total N balance                                 69.68               69.68
!   Balance                                                             0.000
