*SOIL WATER DAILY OUTPUT FILE

*DSSAT Cropping System Model Ver. 4.7.5.035 -develop  MAY 07, 2021 11:55:39

*RUN   1        : 20 IRRIG, light rate,freq CRGRO047 UFGA7801    1
 MODEL          : CRGRO047 - Soybean
 EXPERIMENT     : UFGA7801 SB BRAGG, IRRIGATED & NON-IRRIGATED
 DATA PATH      :
 TREATMENT  1   : 20 IRRIG, light rate,freq CRGRO047
  
!                                                                                                 Soil water content (mm3/mm3) by soil depth (cm):
!                                                                                                 0-5    5-15   15-30   30-45   45-60   60-90  90-120 120-150 150-180
@YEAR DOY   DAS  SWTD  SWXD   ROFC   DRNC   PREC  IR#C  IRRC  DTWT    MWTD  TDFD  TDFC   ROFD    SW1D    SW2D    SW3D    SW4D    SW5D    SW6D    SW7D    SW8D    SW9D
 2020 154     0   214   158      0      0      0     0     0     0    0.00   0.0   0.0   0.00   0.086   0.086   0.086   0.086   0.086   0.076   0.076   0.130   0.258
 2020 155     1   214   158      0      0      0     0     0    90    0.00   0.0   0.0   0.00   0.086   0.086   0.086   0.086   0.086   0.076   0.076   0.130   0.258
 2020 156     2   214   159      0      0      0     0     0   180    0.00   0.0   0.0   0.00   0.088   0.087   0.086   0.086   0.086   0.076   0.076   0.130   0.258
 2020 157     3   211   156      0      0      0     0     0   180    0.00   0.0   0.0   0.00   0.079   0.084   0.084   0.085   0.085   0.075   0.075   0.129   0.257
 2020 158     4   211   156      0      0      0     0     0   180    0.00   0.0   0.0   0.00   0.073   0.083   0.084   0.085   0.085   0.075   0.075   0.129   0.257
 2020 159     5   211   155      0      0      0     0     0   180    0.00   0.0   0.0   0.00   0.068   0.083   0.084   0.085   0.085   0.075   0.075   0.129   0.257
 2020 160     6   210   155      0      0      0     0     0   180    0.00   0.0   0.0   0.00   0.063   0.082   0.084   0.085   0.085   0.075   0.075   0.129   0.257
 2020 161     7   222   167      0      0     13     0     0   180    0.00   0.0   0.0   0.00   0.160   0.120   0.096   0.090   0.087   0.076   0.075   0.129   0.256
 2020 162     8   216   161      0      3     13     0     0   180    0.00   0.0   0.0   0.00   0.112   0.099   0.089   0.087   0.087   0.076   0.076   0.129   0.257
 2020 163     9   212   157      0      4     13     0     0   180    0.00   0.0   0.0   0.00   0.086   0.087   0.085   0.086   0.085   0.075   0.075   0.129   0.256
 2020 164    10   209   154      0      4     13     0     0   180    0.00   0.0   0.0   0.00   0.073   0.081   0.082   0.084   0.084   0.074   0.075   0.128   0.255
 2020 165    11   208   153      0      4     13     0     0   180    0.00   0.0   0.0   0.00   0.066   0.079   0.081   0.084   0.084   0.074   0.075   0.128   0.255
 2020 166    12   208   152      0      4     13     0     0   180    0.00   0.0   0.0   0.00   0.061   0.077   0.081   0.084   0.084   0.074   0.075   0.128   0.255
 2020 167    13   210   155      0      4     13     1     6   180    0.00   0.0   0.0   0.00   0.125   0.086   0.082   0.082   0.083   0.073   0.074   0.127   0.253
 2020 168    14   207   152      0      4     13     1     6   180    0.00   0.0   0.0   0.00   0.091   0.082   0.083   0.082   0.082   0.073   0.073   0.126   0.251
 2020 169    15   204   148      0      4     13     1     6   180    0.00   0.0   0.0   0.00   0.077   0.077   0.081   0.081   0.080   0.072   0.073   0.125   0.250
 2020 170    16   206   151      0      4     13     2    12   180    0.00   0.0   0.0   0.00   0.132   0.089   0.083   0.079   0.079   0.071   0.072   0.124   0.248
 2020 171    17   205   150      0      4     13     2    12   180    0.00   0.0   0.0   0.00   0.108   0.091   0.086   0.079   0.079   0.071   0.072   0.124   0.247
 2020 172    18   202   147      0      4     13     2    12   180    0.00   0.0   0.0   0.00   0.085   0.084   0.083   0.081   0.078   0.070   0.071   0.123   0.246
 2020 173    19   201   146      0      4     13     2    12   180    0.00   0.0   0.0   0.00   0.077   0.082   0.083   0.081   0.078   0.070   0.071   0.123   0.246
 2020 174    20   200   145      0      4     13     2    12   180    0.00   0.0   0.0   0.00   0.070   0.080   0.082   0.081   0.078   0.070   0.071   0.123   0.246
 2020 175    21   200   145      0      4     13     2    12   180    0.00   0.0   0.0   0.00   0.064   0.079   0.082   0.081   0.078   0.070   0.071   0.123   0.246
 2020 176    22   199   144      0      4     13     2    12   180    0.00   0.0   0.0   0.00   0.058   0.077   0.081   0.081   0.078   0.070   0.071   0.123   0.246
 2020 177    23   199   144      0      4     13     2    12   180    0.00   0.0   0.0   0.00   0.054   0.075   0.081   0.081   0.077   0.070   0.071   0.123   0.246
 2020 178    24   198   143      0      4     13     2    12   180    0.00   0.0   0.0   0.00   0.050   0.073   0.080   0.081   0.077   0.070   0.071   0.123   0.246
 2020 179    25   198   143      0      4     13     2    12   180    0.00   0.0   0.0   0.00   0.046   0.072   0.080   0.081   0.077   0.070   0.071   0.123   0.246
 2020 180    26   197   142      0      4     13     2    12   180    0.00   0.0   0.0   0.00   0.043   0.070   0.079   0.081   0.077   0.070   0.071   0.123   0.246
 2020 181    27   204   149      0      4     13     3    22   180    0.00   0.0   0.0   0.00   0.152   0.091   0.083   0.080   0.076   0.069   0.070   0.122   0.244
 2020 182    28   201   145      0      4     13     3    22   180    0.00   0.0   0.0   0.00   0.103   0.084   0.083   0.084   0.078   0.068   0.070   0.121   0.242
 2020 183    29   197   142      0      4     13     3    22   180    0.00   0.0   0.0   0.00   0.082   0.082   0.081   0.083   0.077   0.067   0.069   0.120   0.241
 2020 184    30   197   142      0      4     13     3    22   180    0.00   0.0   0.0   0.00   0.074   0.080   0.081   0.083   0.077   0.067   0.069   0.120   0.241
 2020 185    31   196   141      0      4     13     3    22   180    0.00   0.0   0.0   0.00   0.068   0.079   0.080   0.083   0.077   0.067   0.069   0.120   0.241
 2020 186    32   196   140      0      4     13     3    22   180    0.00   0.0   0.0   0.00   0.062   0.077   0.080   0.083   0.077   0.067   0.069   0.120   0.241
 2020 187    33   195   140      0      4     13     3    22   180    0.00   0.0   0.0   0.00   0.057   0.076   0.079   0.083   0.077   0.067   0.069   0.120   0.241
 2020 188    34   195   140      0      4     13     3    22   180    0.00   0.0   0.0   0.00   0.053   0.074   0.079   0.083   0.077   0.067   0.069   0.120   0.241
 2020 189    35   194   139      0      4     13     3    22   180    0.00   0.0   0.0   0.00   0.049   0.073   0.078   0.083   0.077   0.067   0.069   0.120   0.241
 2020 190    36   194   139      0      4     13     3    22   180    0.00   0.0   0.0   0.00   0.045   0.071   0.078   0.082   0.077   0.067   0.069   0.120   0.241
 2020 191    37   194   138      0      4     13     3    22   180    0.00   0.0   0.0   0.00   0.042   0.070   0.077   0.082   0.077   0.067   0.069   0.120   0.241
 2020 192    38   193   138      0      4     13     3    22   180    0.00   0.0   0.0   0.00   0.039   0.068   0.077   0.082   0.077   0.067   0.069   0.120   0.241
 2020 193    39   193   138      0      4     13     3    22   180    0.00   0.0   0.0   0.00   0.037   0.067   0.076   0.082   0.076   0.067   0.069   0.120   0.241
 2020 194    40   193   137      0      4     13     3    22   180    0.00   0.0   0.0   0.00   0.034   0.066   0.076   0.082   0.076   0.067   0.069   0.120   0.241
 2020 195    41   192   137      0      4     13     3    22   180    0.00   0.0   0.0   0.00   0.032   0.065   0.076   0.082   0.076   0.067   0.069   0.120   0.241
 2020 196    42   194   139      0      4     16     3    22   180    0.00   0.0   0.0   0.00   0.078   0.065   0.075   0.082   0.076   0.067   0.069   0.120   0.241
 2020 197    43   194   139      0      4     16     3    22   180    0.00   0.0   0.0   0.00   0.071   0.064   0.075   0.082   0.076   0.067   0.069   0.120   0.241
 2020 198    44   193   138      0      4     16     3    22   180    0.00   0.0   0.0   0.00   0.065   0.063   0.074   0.082   0.076   0.067   0.069   0.120   0.241
 2020 199    45   195   140      0      4     21     3    22   180    0.00   0.0   0.0   0.00   0.113   0.075   0.072   0.080   0.075   0.066   0.068   0.119   0.239
 2020 200    46   202   147      0      4     31     3    22   180    0.00   0.0   0.0   0.00   0.146   0.113   0.087   0.083   0.074   0.066   0.068   0.118   0.237
 2020 201    47   199   143      0      4     31     3    22   180    0.00   0.0   0.0   0.00   0.105   0.101   0.091   0.086   0.075   0.065   0.067   0.117   0.236
 2020 202    48   195   140      0      4     31     3    22   180    0.00   0.0   0.0   0.00   0.083   0.088   0.086   0.085   0.084   0.064   0.067   0.116   0.234
 2020 203    49   192   137      0      4     31     3    22   180    0.00   0.0   0.0   0.00   0.072   0.083   0.083   0.083   0.083   0.063   0.066   0.115   0.233
 2020 204    50   192   137      0      4     31     3    22   180    0.00   0.0   0.0   0.00   0.065   0.082   0.083   0.083   0.083   0.063   0.066   0.115   0.233
 2020 205    51   191   136      0      4     31     3    22   180    0.00   0.0   0.0   0.00   0.060   0.081   0.082   0.083   0.083   0.063   0.066   0.115   0.233
 2020 206    52   191   136      0      4     31     3    22   180    0.00   0.0   0.0   0.00   0.056   0.079   0.082   0.083   0.083   0.063   0.066   0.115   0.233
 2020 207    53   191   135      0      4     31     3    22   180    0.00   0.0   0.0   0.00   0.051   0.078   0.081   0.083   0.083   0.063   0.066   0.115   0.233
 2020 208    54   230   175      1      4     75     3    22   180    0.00   0.0   0.0   1.45   0.151   0.152   0.154   0.141   0.111   0.076   0.065   0.114   0.231
 2020 209    55   229   174      1      4     77     3    22   180    0.00   0.0   0.0   0.00   0.131   0.126   0.132   0.136   0.123   0.085   0.075   0.114   0.230
 2020 210    56   225   170      1      5     77     3    22   180    0.00   0.0   0.0   0.00   0.098   0.102   0.107   0.109   0.104   0.080   0.075   0.129   0.257
 2020 211    57   228   173      1      5     84     3    22   180    0.00   0.0   0.0   0.00   0.145   0.104   0.101   0.105   0.104   0.082   0.078   0.131   0.255
 2020 212    58   224   169      1      5     84     3    22   180    0.00   0.0   0.0   0.00   0.105   0.096   0.096   0.100   0.101   0.082   0.080   0.132   0.256
 2020 213    59   216   161      1     10     84     3    22   180    0.00   0.0   0.0   0.00   0.083   0.086   0.088   0.091   0.092   0.078   0.077   0.131   0.256
 2020 214    60   213   158      1     10     84     3    22   180    0.00   0.0   0.0   0.00   0.072   0.081   0.085   0.087   0.088   0.077   0.077   0.130   0.256
 2020 215    61   210   154      1     10     84     3    22   180    0.00   0.0   0.0   0.00   0.062   0.077   0.083   0.085   0.086   0.076   0.076   0.129   0.255
 2020 216    62   214   159      1     10     92     3    22   180    0.00   0.0   0.0   0.00   0.147   0.092   0.085   0.086   0.085   0.075   0.075   0.128   0.253
 2020 217    63   214   158      1     10     95     3    22   180    0.00   0.0   0.0   0.00   0.131   0.097   0.088   0.087   0.086   0.074   0.074   0.127   0.251
 2020 218    64   210   155      1     10     95     3    22   180    0.00   0.0   0.0   0.00   0.094   0.087   0.086   0.085   0.085   0.075   0.075   0.128   0.249
 2020 219    65   219   164      1     10    107     3    22   180    0.00   0.0   0.0   0.00   0.148   0.124   0.097   0.091   0.087   0.076   0.075   0.127   0.248
 2020 220    66   215   160      1     10    107     3    22   180    0.00   0.0   0.0   0.00   0.101   0.099   0.089   0.087   0.086   0.075   0.075   0.129   0.256
 2020 221    67   212   156      1     10    107     3    22   180    0.00   0.0   0.0   0.00   0.081   0.088   0.086   0.085   0.085   0.075   0.075   0.129   0.255
 2020 222    68   209   153      1     10    107     3    22   180    0.00   0.0   0.0   0.00   0.070   0.083   0.084   0.083   0.083   0.074   0.075   0.128   0.254
 2020 223    69   208   153      1     10    107     3    22   180    0.00   0.0   0.0   0.00   0.065   0.082   0.083   0.083   0.083   0.074   0.075   0.128   0.254
 2020 224    70   208   152      1     10    107     3    22   180    0.00   0.0   0.0   0.00   0.060   0.081   0.083   0.083   0.083   0.074   0.075   0.128   0.254
 2020 225    71   207   152      1     10    107     3    22   180    0.00   0.0   0.0   0.00   0.055   0.080   0.083   0.083   0.083   0.074   0.075   0.128   0.254
 2020 226    72   207   152      1     10    107     3    22   180    0.00   0.0   0.0   0.00   0.051   0.079   0.083   0.083   0.083   0.074   0.075   0.128   0.254
 2020 227    73   207   151      1     10    107     3    22   180    0.00   0.0   0.0   0.00   0.047   0.078   0.082   0.083   0.083   0.074   0.075   0.128   0.254
 2020 228    74   206   151      1     10    107     3    22   180    0.00   0.0   0.0   0.00   0.044   0.077   0.082   0.083   0.083   0.074   0.075   0.128   0.254
 2020 229    75   209   153      1     10    110     3    22   180    0.00   0.0   0.0   0.00   0.089   0.079   0.082   0.083   0.083   0.074   0.075   0.128   0.254
 2020 230    76   215   160      1     10    110     4    32   180    0.00   0.0   0.0   0.00   0.148   0.107   0.090   0.086   0.084   0.073   0.074   0.127   0.252
 2020 231    77   211   156      1     10    110     4    32   180    0.00   0.0   0.0   0.00   0.102   0.091   0.085   0.084   0.085   0.075   0.075   0.129   0.251
 2020 232    78   208   153      1     10    110     4    32   180    0.00   0.0   0.0   0.00   0.081   0.084   0.083   0.084   0.085   0.075   0.075   0.128   0.249
 2020 233    79   208   153      1     10    110     4    32   180    0.00   0.0   0.0   0.00   0.075   0.083   0.083   0.084   0.085   0.075   0.075   0.128   0.249
 2020 234    80   207   152      1     10    110     4    32   180    0.00   0.0   0.0   0.00   0.069   0.082   0.083   0.084   0.085   0.075   0.075   0.128   0.249
 2020 235    81   214   158      1     10    110     5    41   180    0.00   0.0   0.0   0.00   0.150   0.104   0.089   0.086   0.085   0.074   0.074   0.127   0.247
 2020 236    82   210   155      1     10    110     5    41   180    0.00   0.0   0.0   0.00   0.102   0.090   0.085   0.085   0.085   0.075   0.075   0.129   0.247
 2020 237    83   216   161      1     10    110     6    51   180    0.00   0.0   0.0   0.00   0.147   0.115   0.094   0.089   0.087   0.075   0.075   0.128   0.246
 2020 238    84   213   158      1     10    110     6    51   180    0.00   0.0   0.0   0.00   0.101   0.095   0.088   0.086   0.085   0.075   0.075   0.129   0.252
 2020 239    85   210   155      1     10    110     6    51   180    0.00   0.0   0.0   0.00   0.081   0.086   0.085   0.084   0.085   0.075   0.075   0.129   0.251
 2020 240    86   215   159      1     10    110     7    59   180    0.00   0.0   0.0   0.00   0.149   0.101   0.090   0.087   0.086   0.074   0.075   0.128   0.249
 2020 241    87   247   192      4     10    149     7    59   180    0.00   0.0   0.0   2.71   0.144   0.151   0.154   0.149   0.117   0.082   0.078   0.130   0.247
 2020 242    88   257   202      4     10    153     8    68   180    0.00   0.0   0.0   0.00   0.156   0.154   0.153   0.151   0.134   0.091   0.084   0.134   0.251
 2020 243    89   232   177      4     31    153     8    68   180    0.00   0.0   0.0   0.00   0.105   0.114   0.116   0.116   0.108   0.082   0.079   0.131   0.256
 2020 244    90   237   182      4     31    153     9    76   180    0.00   0.0   0.0   0.00   0.147   0.120   0.111   0.113   0.110   0.085   0.082   0.133   0.258
 2020 245    91   223   168      4     42    153     9    76   180    0.00   0.0   0.0   0.00   0.105   0.099   0.096   0.098   0.097   0.080   0.078   0.132   0.257
 2020 246    92   227   172      4     42    153    10    84   180    0.00   0.0   0.0   0.00   0.147   0.113   0.099   0.098   0.097   0.080   0.079   0.132   0.258
 2020 247    93   221   166      4     48    153    10    84   180    0.00   0.0   0.0   0.00   0.117   0.100   0.093   0.092   0.092   0.078   0.079   0.132   0.258
 2020 248    94   218   163      4     51    153    10    84   180    0.00   0.0   0.0   0.00   0.101   0.093   0.089   0.089   0.089   0.078   0.079   0.132   0.258
 2020 249    95   217   162      4     52    153    10    84   180    0.00   0.0   0.0   0.00   0.094   0.090   0.088   0.088   0.089   0.078   0.079   0.132   0.258
 2020 250    96   226   170      4     52    153    11    92   179    0.00   0.0   0.0   0.00   0.165   0.111   0.095   0.091   0.090   0.078   0.078   0.132   0.260
 2020 251    97   221   166      4     57    153    11    92   179    0.00   0.0   0.0   0.00   0.126   0.099   0.091   0.089   0.088   0.078   0.078   0.132   0.260
 2020 252    98   229   174      4     58    162    11    92   179    0.00   0.0   0.0   0.00   0.165   0.127   0.102   0.095   0.092   0.078   0.078   0.132   0.260
 2020 253    99   257   202      4     59    183    12   101   179    0.00   0.0   0.0   0.26   0.165   0.158   0.158   0.149   0.120   0.086   0.082   0.134   0.261
 2020 254   100   256   201      4     60    184    12   101   178    0.00   0.0   0.0   0.00   0.138   0.133   0.138   0.143   0.132   0.092   0.087   0.138   0.263
 2020 255   101   235   180      4     82    184    12   101   179    0.00   0.0   0.0   0.00   0.112   0.109   0.112   0.115   0.109   0.084   0.082   0.134   0.261
 2020 256   102   240   185      4     83    184    13   107   179    0.00   0.0   0.0   0.00   0.165   0.115   0.108   0.112   0.110   0.086   0.084   0.136   0.262
 2020 257   103   227   171      4     96    184    13   107   179    0.00   0.0   0.0   0.00   0.126   0.100   0.097   0.099   0.098   0.081   0.080   0.133   0.260
 2020 258   104   221   166      4    102    184    13   107   179    0.00   0.0   0.0   0.00   0.106   0.093   0.092   0.092   0.092   0.079   0.078   0.133   0.260
 2020 259   105   226   171      4    102    184    14   113   179    0.00   0.0   0.0   0.00   0.163   0.105   0.095   0.094   0.093   0.079   0.078   0.133   0.260
 2020 260   106   221   166      4    108    184    14   113   179    0.00   0.0   0.0   0.00   0.125   0.096   0.091   0.090   0.089   0.078   0.078   0.133   0.260
 2020 261   107   219   164      4    110    184    14   113   179    0.00   0.0   0.0   0.00   0.105   0.091   0.088   0.088   0.088   0.078   0.078   0.133   0.260
 2020 262   108   224   169      4    111    184    15   119   179    0.00   0.0   0.0   0.00   0.163   0.104   0.093   0.091   0.089   0.078   0.078   0.132   0.260
 2020 263   109   220   165      4    115    184    15   119   179    0.00   0.0   0.0   0.00   0.124   0.095   0.090   0.088   0.088   0.078   0.078   0.132   0.260
 2020 264   110   218   163      4    116    184    15   119   179    0.00   0.0   0.0   0.00   0.105   0.091   0.088   0.088   0.088   0.078   0.078   0.132   0.260
 2020 265   111   224   169      4    117    184    16   125   179    0.00   0.0   0.0   0.00   0.163   0.104   0.093   0.091   0.089   0.078   0.078   0.132   0.260
 2020 266   112   220   165      4    121    184    16   125   179    0.00   0.0   0.0   0.00   0.124   0.095   0.089   0.088   0.088   0.078   0.078   0.132   0.260
 2020 267   113   218   163      4    122    184    16   125   179    0.00   0.0   0.0   0.00   0.105   0.091   0.088   0.088   0.088   0.078   0.078   0.132   0.260
 2020 268   114   217   162      4    123    184    16   125   179    0.00   0.0   0.0   0.00   0.096   0.088   0.088   0.088   0.088   0.078   0.078   0.132   0.260
 2020 269   115   223   167      4    123    184    17   130   179    0.00   0.0   0.0   0.00   0.149   0.100   0.092   0.090   0.089   0.079   0.078   0.132   0.260
 2020 270   116   220   165      4    126    184    17   130   179    0.00   0.0   0.0   0.00   0.118   0.093   0.089   0.088   0.089   0.079   0.078   0.132   0.260
 2020 271   117   219   163      4    127    184    17   130   179    0.00   0.0   0.0   0.00   0.102   0.090   0.089   0.088   0.089   0.079   0.078   0.132   0.260
 2020 272   118   218   163      4    128    184    17   130   179    0.00   0.0   0.0   0.00   0.094   0.088   0.089   0.088   0.089   0.079   0.078   0.132   0.260
 2020 273   119   218   163      4    128    184    17   130   179    0.00   0.0   0.0   0.00   0.090   0.088   0.089   0.088   0.089   0.079   0.078   0.132   0.260
 2020 274   120   218   163      4    128    184    17   130   179    0.00   0.0   0.0   0.00   0.088   0.088   0.089   0.088   0.089   0.079   0.078   0.132   0.260
 2020 275   121   218   163      4    128    184    17   130   179    0.00   0.0   0.0   0.00   0.088   0.088   0.089   0.088   0.089   0.079   0.078   0.132   0.260
 2020 276   122   218   163      4    128    184    17   130   179    0.00   0.0   0.0   0.00   0.088   0.088   0.089   0.088   0.089   0.079   0.078   0.132   0.260
 2020 277   123   218   163      4    128    184    17   130   179    0.00   0.0   0.0   0.00   0.088   0.088   0.089   0.088   0.089   0.079   0.078   0.132   0.260
 2020 278   124   218   163      4    128    184    17   130   179    0.00   0.0   0.0   0.00   0.088   0.088   0.089   0.088   0.089   0.079   0.078   0.132   0.260
 2020 279   125   218   163      4    128    184    17   130   179    0.00   0.0   0.0   0.00   0.088   0.088   0.089   0.088   0.089   0.079   0.078   0.132   0.260
 2020 280   126   218   163      4    128    184    17   130   179    0.00   0.0   0.0   0.00   0.088   0.088   0.089   0.088   0.089   0.079   0.078   0.132   0.260
 2020 281   127   218   163      4    128    184    17   130   179    0.00   0.0   0.0   0.00   0.088   0.088   0.089   0.088   0.089   0.079   0.078   0.132   0.260
 2020 282   128   218   163      4    128    184    17   130   179    0.00   0.0   0.0   0.00   0.088   0.088   0.089   0.088   0.089   0.079   0.078   0.132   0.260
 2020 283   129   218   163      4    128    184    17   130   179    0.00   0.0   0.0   0.00   0.088   0.088   0.089   0.088   0.089   0.079   0.078   0.132   0.260
 2020 284   130   218   163      4    128    184    17   130   179    0.00   0.0   0.0   0.00   0.088   0.088   0.089   0.088   0.089   0.079   0.078   0.132   0.260
 2020 285   131   218   162      4    128    184    17   130   179    0.00   0.0   0.0   0.00   0.088   0.088   0.089   0.088   0.089   0.079   0.078   0.132   0.260
 2020 286   132   218   162      4    128    184    17   130   179    0.00   0.0   0.0   0.00   0.088   0.088   0.089   0.088   0.089   0.079   0.078   0.132   0.260
 2020 287   133   218   162      4    128    184    17   130   179    0.00   0.0   0.0   0.00   0.088   0.088   0.089   0.088   0.089   0.079   0.078   0.132   0.260
 2020 288   134   218   162      4    128    184    17   130   179    0.00   0.0   0.0   0.00   0.088   0.088   0.089   0.088   0.089   0.079   0.078   0.132   0.260
 2020 289   135   218   162      4    128    184    17   130   179    0.00   0.0   0.0   0.00   0.088   0.088   0.089   0.088   0.089   0.079   0.078   0.132   0.260
 2020 290   136   218   162      4    128    184    17   130   179    0.00   0.0   0.0   0.00   0.088   0.088   0.089   0.088   0.089   0.079   0.078   0.132   0.260

*DSSAT Cropping System Model Ver. 4.7.5.035 -develop  MAY 07, 2021 11:55:39

*RUN   2        : 20 RAINFED BRAGG          CRGRO047 UFGA7801    2
 MODEL          : CRGRO047 - Soybean
 EXPERIMENT     : UFGA7801 SB BRAGG, IRRIGATED & NON-IRRIGATED
 DATA PATH      :
 TREATMENT  2   : 20 RAINFED BRAGG          CRGRO047
  
!                                                                                                 Soil water content (mm3/mm3) by soil depth (cm):
!                                                                                                 0-5    5-15   15-30   30-45   45-60   60-90  90-120 120-150 150-180
@YEAR DOY   DAS  SWTD  SWXD   ROFC   DRNC   PREC  IR#C  IRRC  DTWT    MWTD  TDFD  TDFC   ROFD    SW1D    SW2D    SW3D    SW4D    SW5D    SW6D    SW7D    SW8D    SW9D
 2020 154     0   214   158      0      0      0     0     0     0    0.00   0.0   0.0   0.00   0.086   0.086   0.086   0.086   0.086   0.076   0.076   0.130   0.258
 2020 155     1   214   158      0      0      0     0     0    90    0.00   0.0   0.0   0.00   0.086   0.086   0.086   0.086   0.086   0.076   0.076   0.130   0.258
 2020 156     2   214   159      0      0      0     0     0   180    0.00   0.0   0.0   0.00   0.088   0.087   0.086   0.086   0.086   0.076   0.076   0.130   0.258
 2020 157     3   211   156      0      0      0     0     0   180    0.00   0.0   0.0   0.00   0.079   0.084   0.084   0.085   0.085   0.075   0.075   0.129   0.257
 2020 158     4   211   156      0      0      0     0     0   180    0.00   0.0   0.0   0.00   0.073   0.083   0.084   0.085   0.085   0.075   0.075   0.129   0.257
 2020 159     5   211   155      0      0      0     0     0   180    0.00   0.0   0.0   0.00   0.068   0.083   0.084   0.085   0.085   0.075   0.075   0.129   0.257
 2020 160     6   210   155      0      0      0     0     0   180    0.00   0.0   0.0   0.00   0.063   0.082   0.084   0.085   0.085   0.075   0.075   0.129   0.257
 2020 161     7   222   167      0      0     13     0     0   180    0.00   0.0   0.0   0.00   0.160   0.120   0.096   0.090   0.087   0.076   0.075   0.129   0.256
 2020 162     8   216   161      0      3     13     0     0   180    0.00   0.0   0.0   0.00   0.112   0.099   0.089   0.087   0.087   0.076   0.076   0.129   0.257
 2020 163     9   212   157      0      4     13     0     0   180    0.00   0.0   0.0   0.00   0.086   0.087   0.085   0.086   0.085   0.075   0.075   0.129   0.256
 2020 164    10   209   154      0      4     13     0     0   180    0.00   0.0   0.0   0.00   0.073   0.081   0.082   0.084   0.084   0.074   0.075   0.128   0.255
 2020 165    11   208   153      0      4     13     0     0   180    0.00   0.0   0.0   0.00   0.066   0.079   0.081   0.084   0.084   0.074   0.075   0.128   0.255
 2020 166    12   208   152      0      4     13     0     0   180    0.00   0.0   0.0   0.00   0.061   0.077   0.081   0.084   0.084   0.074   0.075   0.128   0.255
 2020 167    13   207   152      0      4     13     0     0   180    0.00   0.0   0.0   0.00   0.056   0.075   0.080   0.084   0.084   0.074   0.075   0.128   0.255
 2020 168    14   207   151      0      4     13     0     0   180    0.00   0.0   0.0   0.00   0.051   0.073   0.080   0.084   0.084   0.074   0.075   0.128   0.255
 2020 169    15   206   151      0      4     13     0     0   180    0.00   0.0   0.0   0.00   0.048   0.072   0.079   0.084   0.084   0.074   0.075   0.128   0.255
 2020 170    16   206   150      0      4     13     0     0   180    0.00   0.0   0.0   0.00   0.044   0.070   0.079   0.084   0.084   0.074   0.075   0.128   0.255
 2020 171    17   206   151      0      4     13     0     0   180    0.00   0.0   0.0   0.00   0.051   0.068   0.078   0.084   0.084   0.074   0.075   0.128   0.255
 2020 172    18   205   150      0      4     13     0     0   180    0.00   0.0   0.0   0.00   0.047   0.067   0.078   0.084   0.084   0.074   0.075   0.128   0.255
 2020 173    19   205   150      0      4     13     0     0   180    0.00   0.0   0.0   0.00   0.044   0.066   0.077   0.084   0.084   0.074   0.075   0.128   0.255
 2020 174    20   205   149      0      4     13     0     0   180    0.00   0.0   0.0   0.00   0.041   0.065   0.076   0.084   0.084   0.074   0.075   0.128   0.255
 2020 175    21   204   149      0      4     13     0     0   180    0.00   0.0   0.0   0.00   0.038   0.064   0.076   0.084   0.084   0.074   0.075   0.128   0.255
 2020 176    22   204   149      0      4     13     0     0   180    0.00   0.0   0.0   0.00   0.035   0.063   0.075   0.084   0.084   0.074   0.075   0.128   0.255
 2020 177    23   204   148      0      4     13     0     0   180    0.00   0.0   0.0   0.00   0.033   0.062   0.075   0.084   0.084   0.074   0.075   0.128   0.255
 2020 178    24   203   148      0      4     13     0     0   180    0.00   0.0   0.0   0.00   0.031   0.061   0.074   0.084   0.084   0.074   0.075   0.128   0.255
 2020 179    25   203   148      0      4     13     0     0   180    0.00   0.0   0.0   0.00   0.029   0.060   0.074   0.084   0.084   0.074   0.075   0.128   0.255
 2020 180    26   203   148      0      4     13     0     0   180    0.00   0.0   0.0   0.00   0.027   0.060   0.073   0.083   0.084   0.074   0.075   0.128   0.255
 2020 181    27   203   147      0      4     13     0     0   180    0.00   0.0   0.0   0.00   0.025   0.059   0.073   0.083   0.084   0.074   0.075   0.128   0.255
 2020 182    28   202   147      0      4     13     0     0   180    0.00   0.0   0.0   0.00   0.024   0.059   0.072   0.083   0.084   0.074   0.075   0.128   0.255
 2020 183    29   202   147      0      4     13     0     0   180    0.00   0.0   0.0   0.00   0.023   0.058   0.072   0.083   0.084   0.074   0.075   0.128   0.255
 2020 184    30   202   147      0      4     13     0     0   180    0.00   0.0   0.0   0.00   0.021   0.058   0.072   0.083   0.084   0.074   0.075   0.128   0.255
 2020 185    31   202   147      0      4     13     0     0   180    0.00   0.0   0.0   0.00   0.020   0.057   0.071   0.083   0.084   0.074   0.075   0.128   0.255
 2020 186    32   202   146      0      4     13     0     0   180    0.00   0.0   0.0   0.00   0.019   0.057   0.071   0.083   0.084   0.074   0.075   0.128   0.255
 2020 187    33   201   146      0      4     13     0     0   180    0.00   0.0   0.0   0.00   0.018   0.056   0.070   0.083   0.084   0.074   0.075   0.128   0.255
 2020 188    34   201   146      0      4     13     0     0   180    0.00   0.0   0.0   0.00   0.017   0.056   0.070   0.083   0.084   0.074   0.075   0.128   0.255
 2020 189    35   201   146      0      4     13     0     0   180    0.00   0.0   0.0   0.00   0.016   0.055   0.070   0.083   0.084   0.074   0.075   0.128   0.255
 2020 190    36   201   146      0      4     13     0     0   180    0.00   0.0   0.0   0.00   0.016   0.055   0.069   0.083   0.084   0.074   0.075   0.128   0.255
 2020 191    37   201   146      0      4     13     0     0   180    0.00   0.0   0.0   0.00   0.015   0.054   0.069   0.083   0.084   0.074   0.075   0.128   0.255
 2020 192    38   201   146      0      4     13     0     0   180    0.00   0.0   0.0   0.00   0.014   0.054   0.069   0.083   0.084   0.074   0.075   0.128   0.255
 2020 193    39   201   145      0      4     13     0     0   180    0.00   0.0   0.0   0.00   0.014   0.054   0.068   0.083   0.084   0.074   0.075   0.128   0.255
 2020 194    40   201   145      0      4     13     0     0   180    0.00   0.0   0.0   0.00   0.013   0.053   0.068   0.083   0.084   0.074   0.075   0.128   0.255
 2020 195    41   200   145      0      4     13     0     0   180    0.00   0.0   0.0   0.00   0.013   0.053   0.068   0.083   0.084   0.074   0.075   0.128   0.255
 2020 196    42   203   147      0      4     16     0     0   180    0.00   0.0   0.0   0.00   0.060   0.053   0.067   0.083   0.084   0.074   0.075   0.128   0.255
 2020 197    43   202   147      0      4     16     0     0   180    0.00   0.0   0.0   0.00   0.055   0.052   0.067   0.083   0.084   0.074   0.075   0.128   0.254
 2020 198    44   202   147      0      4     16     0     0   180    0.00   0.0   0.0   0.00   0.051   0.052   0.067   0.083   0.084   0.074   0.075   0.128   0.254
 2020 199    45   206   151      0      4     21     0     0   180    0.00   0.0   0.0   0.00   0.112   0.064   0.067   0.083   0.084   0.074   0.075   0.128   0.254
 2020 200    46   213   158      0      4     31     0     0   180    0.00   0.0   0.0   0.00   0.147   0.108   0.082   0.081   0.082   0.073   0.074   0.127   0.253
 2020 201    47   210   155      0      4     31     0     0   180    0.00   0.0   0.0   0.00   0.106   0.099   0.087   0.084   0.081   0.072   0.073   0.126   0.251
 2020 202    48   206   151      0      4     31     0     0   180    0.00   0.0   0.0   0.00   0.083   0.087   0.085   0.084   0.085   0.072   0.073   0.125   0.249
 2020 203    49   203   148      0      4     31     0     0   180    0.00   0.0   0.0   0.00   0.072   0.082   0.082   0.083   0.083   0.071   0.072   0.124   0.248
 2020 204    50   203   148      0      4     31     0     0   180    0.00   0.0   0.0   0.00   0.066   0.081   0.082   0.083   0.083   0.071   0.072   0.124   0.248
 2020 205    51   202   147      0      4     31     0     0   180    0.00   0.0   0.0   0.00   0.061   0.080   0.081   0.083   0.083   0.071   0.072   0.124   0.248
 2020 206    52   202   147      0      4     31     0     0   180    0.00   0.0   0.0   0.00   0.056   0.079   0.081   0.083   0.083   0.071   0.072   0.124   0.248
 2020 207    53   202   146      0      4     31     0     0   180    0.00   0.0   0.0   0.00   0.052   0.078   0.081   0.083   0.083   0.071   0.072   0.124   0.248
 2020 208    54   241   185      1      4     75     0     0   180    0.00   0.0   0.0   1.45   0.152   0.152   0.154   0.140   0.111   0.079   0.075   0.123   0.246
 2020 209    55   240   185      1      4     77     0     0   180    0.00   0.0   0.0   0.00   0.132   0.126   0.132   0.136   0.123   0.087   0.081   0.128   0.245
 2020 210    56   226   171      1     15     77     0     0   180    0.00   0.0   0.0   0.00   0.098   0.102   0.107   0.109   0.103   0.081   0.078   0.129   0.257
 2020 211    57   229   174      1     15     84     0     0   180    0.00   0.0   0.0   0.00   0.146   0.104   0.101   0.105   0.104   0.082   0.080   0.131   0.257
 2020 212    58   225   170      1     15     84     0     0   180    0.00   0.0   0.0   0.00   0.105   0.097   0.096   0.100   0.101   0.082   0.081   0.132   0.258
 2020 213    59   217   161      1     20     84     0     0   180    0.00   0.0   0.0   0.00   0.083   0.086   0.088   0.091   0.092   0.078   0.078   0.131   0.257
 2020 214    60   213   158      1     21     84     0     0   180    0.00   0.0   0.0   0.00   0.072   0.082   0.086   0.087   0.088   0.077   0.077   0.130   0.256
 2020 215    61   210   155      1     21     84     0     0   180    0.00   0.0   0.0   0.00   0.062   0.077   0.083   0.085   0.086   0.076   0.076   0.129   0.255
 2020 216    62   215   159      1     21     92     0     0   180    0.00   0.0   0.0   0.00   0.148   0.092   0.086   0.086   0.085   0.076   0.076   0.128   0.253
 2020 217    63   214   159      1     21     95     0     0   180    0.00   0.0   0.0   0.00   0.131   0.097   0.088   0.087   0.086   0.075   0.075   0.127   0.251
 2020 218    64   210   155      1     21     95     0     0   180    0.00   0.0   0.0   0.00   0.094   0.087   0.086   0.085   0.085   0.075   0.075   0.129   0.249
 2020 219    65   219   164      1     21    107     0     0   180    0.00   0.0   0.0   0.00   0.148   0.124   0.098   0.091   0.087   0.076   0.075   0.128   0.248
 2020 220    66   215   160      1     21    107     0     0   180    0.00   0.0   0.0   0.00   0.102   0.099   0.089   0.087   0.086   0.075   0.075   0.129   0.256
 2020 221    67   212   157      1     21    107     0     0   180    0.00   0.0   0.0   0.00   0.082   0.088   0.085   0.085   0.085   0.075   0.075   0.129   0.256
 2020 222    68   209   153      1     21    107     0     0   180    0.00   0.0   0.0   0.00   0.071   0.083   0.082   0.084   0.084   0.074   0.075   0.128   0.254
 2020 223    69   208   153      1     21    107     0     0   180    0.00   0.0   0.0   0.00   0.065   0.082   0.082   0.083   0.084   0.074   0.075   0.128   0.254
 2020 224    70   208   153      1     21    107     0     0   180    0.00   0.0   0.0   0.00   0.060   0.081   0.082   0.083   0.084   0.074   0.075   0.128   0.254
 2020 225    71   207   152      1     21    107     0     0   180    0.00   0.0   0.0   0.00   0.055   0.080   0.082   0.083   0.084   0.074   0.075   0.128   0.254
 2020 226    72   207   152      1     21    107     0     0   180    0.00   0.0   0.0   0.00   0.051   0.079   0.081   0.083   0.084   0.074   0.075   0.128   0.254
 2020 227    73   207   151      1     21    107     0     0   180    0.00   0.0   0.0   0.00   0.048   0.078   0.081   0.083   0.083   0.074   0.075   0.128   0.254
 2020 228    74   206   151      1     21    107     0     0   180    0.00   0.0   0.0   0.00   0.044   0.077   0.081   0.083   0.083   0.074   0.075   0.128   0.254
 2020 229    75   209   154      1     21    110     0     0   180    0.00   0.0   0.0   0.00   0.089   0.079   0.080   0.083   0.083   0.074   0.075   0.128   0.254
 2020 230    76   206   150      1     21    110     0     0   180    0.00   0.0   0.0   0.00   0.077   0.075   0.078   0.082   0.082   0.073   0.074   0.127   0.253
 2020 231    77   205   150      1     21    110     0     0   180    0.00   0.0   0.0   0.00   0.071   0.074   0.078   0.082   0.082   0.073   0.074   0.127   0.253
 2020 232    78   205   150      1     21    110     0     0   180    0.00   0.0   0.0   0.00   0.065   0.073   0.077   0.082   0.082   0.073   0.074   0.127   0.253
 2020 233    79   204   149      1     21    110     0     0   180    0.00   0.0   0.0   0.00   0.060   0.072   0.077   0.082   0.082   0.073   0.074   0.127   0.253
 2020 234    80   204   149      1     21    110     0     0   180    0.00   0.0   0.0   0.00   0.056   0.071   0.077   0.082   0.082   0.073   0.074   0.127   0.253
 2020 235    81   204   148      1     21    110     0     0   180    0.00   0.0   0.0   0.00   0.052   0.070   0.077   0.081   0.082   0.073   0.074   0.127   0.253
 2020 236    82   203   148      1     21    110     0     0   180    0.00   0.0   0.0   0.00   0.048   0.070   0.076   0.081   0.082   0.073   0.074   0.127   0.253
 2020 237    83   203   148      1     21    110     0     0   180    0.00   0.0   0.0   0.00   0.044   0.069   0.076   0.081   0.082   0.073   0.074   0.127   0.253
 2020 238    84   203   148      1     21    110     0     0   180    0.00   0.0   0.0   0.00   0.041   0.068   0.076   0.081   0.082   0.073   0.074   0.127   0.253
 2020 239    85   203   147      1     21    110     0     0   180    0.00   0.0   0.0   0.00   0.039   0.067   0.076   0.081   0.082   0.073   0.074   0.127   0.253
 2020 240    86   202   147      1     21    110     0     0   180    0.00   0.0   0.0   0.00   0.036   0.067   0.075   0.081   0.082   0.073   0.074   0.127   0.253
 2020 241    87   238   182      2     21    149     0     0   180    0.00   0.0   0.0   0.36   0.153   0.152   0.154   0.118   0.099   0.077   0.075   0.126   0.251
 2020 242    88   239   184      2     21    153     0     0   180    0.00   0.0   0.0   0.00   0.155   0.133   0.135   0.126   0.113   0.083   0.079   0.129   0.250
 2020 243    89   224   169      2     33    153     0     0   180    0.00   0.0   0.0   0.00   0.105   0.104   0.107   0.104   0.098   0.079   0.077   0.129   0.256
 2020 244    90   217   161      2     37    153     0     0   180    0.00   0.0   0.0   0.00   0.083   0.090   0.094   0.093   0.090   0.078   0.076   0.129   0.256
 2020 245    91   213   158      2     38    153     0     0   180    0.00   0.0   0.0   0.00   0.074   0.084   0.088   0.088   0.087   0.077   0.076   0.129   0.257
 2020 246    92   210   155      2     38    153     0     0   180    0.00   0.0   0.0   0.00   0.064   0.080   0.085   0.086   0.086   0.076   0.075   0.128   0.255
 2020 247    93   210   155      2     38    153     0     0   180    0.00   0.0   0.0   0.00   0.064   0.080   0.085   0.086   0.086   0.076   0.075   0.128   0.255
 2020 248    94   210   155      2     38    153     0     0   180    0.00   0.0   0.0   0.00   0.064   0.080   0.085   0.086   0.086   0.076   0.075   0.128   0.255
 2020 249    95   210   155      2     38    153     0     0   180    0.00   0.0   0.0   0.00   0.064   0.080   0.085   0.086   0.086   0.076   0.075   0.128   0.255
 2020 250    96   210   155      2     38    153     0     0   180    0.00   0.0   0.0   0.00   0.064   0.080   0.085   0.086   0.086   0.076   0.075   0.128   0.255
 2020 251    97   210   155      2     38    153     0     0   180    0.00   0.0   0.0   0.00   0.064   0.080   0.085   0.086   0.086   0.076   0.075   0.128   0.255
 2020 252    98   219   164      2     38    162     0     0   180    0.00   0.0   0.0   0.00   0.165   0.102   0.091   0.089   0.089   0.076   0.075   0.128   0.255
 2020 253    99   240   185      2     38    183     0     0   180    0.00   0.0   0.0   0.11   0.165   0.158   0.140   0.114   0.101   0.080   0.079   0.128   0.255
 2020 254   100   241   185      2     38    184     0     0   180    0.00   0.0   0.0   0.00   0.139   0.133   0.128   0.121   0.111   0.084   0.082   0.132   0.257
 2020 255   101   228   172      2     51    184     0     0   180    0.00   0.0   0.0   0.00   0.112   0.110   0.107   0.104   0.099   0.080   0.079   0.132   0.258
 2020 256   102   221   166      2     57    184     0     0   180    0.00   0.0   0.0   0.00   0.099   0.098   0.097   0.095   0.092   0.078   0.079   0.132   0.258
 2020 257   103   218   163      2     60    184     0     0   180    0.00   0.0   0.0   0.00   0.093   0.092   0.091   0.090   0.089   0.078   0.079   0.132   0.258
 2020 258   104   217   162      2     62    184     0     0   180    0.00   0.0   0.0   0.00   0.090   0.089   0.089   0.088   0.088   0.078   0.079   0.132   0.258
 2020 259   105   217   162      2     62    184     0     0   180    0.00   0.0   0.0   0.00   0.088   0.089   0.089   0.088   0.088   0.078   0.079   0.132   0.258
 2020 260   106   217   162      2     62    184     0     0   180    0.00   0.0   0.0   0.00   0.088   0.089   0.089   0.088   0.088   0.078   0.079   0.132   0.258
 2020 261   107   217   162      2     62    184     0     0   180    0.00   0.0   0.0   0.00   0.088   0.089   0.089   0.088   0.088   0.078   0.079   0.132   0.258
 2020 262   108   217   162      2     62    184     0     0   180    0.00   0.0   0.0   0.00   0.088   0.089   0.089   0.088   0.088   0.078   0.079   0.132   0.258
 2020 263   109   217   162      2     62    184     0     0   180    0.00   0.0   0.0   0.00   0.088   0.089   0.089   0.088   0.088   0.078   0.079   0.132   0.258
 2020 264   110   217   162      2     62    184     0     0   180    0.00   0.0   0.0   0.00   0.088   0.089   0.089   0.088   0.088   0.078   0.079   0.132   0.258
 2020 265   111   217   162      2     62    184     0     0   180    0.00   0.0   0.0   0.00   0.088   0.089   0.089   0.088   0.088   0.078   0.079   0.132   0.258
 2020 266   112   217   162      2     62    184     0     0   180    0.00   0.0   0.0   0.00   0.088   0.089   0.089   0.088   0.088   0.078   0.079   0.132   0.258
 2020 267   113   217   162      2     62    184     0     0   180    0.00   0.0   0.0   0.00   0.088   0.089   0.089   0.088   0.088   0.078   0.079   0.132   0.258
 2020 268   114   217   162      2     62    184     0     0   180    0.00   0.0   0.0   0.00   0.088   0.089   0.089   0.088   0.088   0.078   0.079   0.132   0.258
 2020 269   115   217   162      2     62    184     0     0   180    0.00   0.0   0.0   0.00   0.088   0.089   0.089   0.088   0.088   0.078   0.079   0.132   0.258
 2020 270   116   217   162      2     62    184     0     0   180    0.00   0.0   0.0   0.00   0.088   0.089   0.089   0.088   0.088   0.078   0.079   0.132   0.258
 2020 271   117   217   162      2     62    184     0     0   180    0.00   0.0   0.0   0.00   0.088   0.089   0.089   0.088   0.088   0.078   0.079   0.132   0.258
 2020 272   118   217   162      2     62    184     0     0   180    0.00   0.0   0.0   0.00   0.088   0.089   0.089   0.088   0.088   0.078   0.079   0.132   0.258
 2020 273   119   217   162      2     62    184     0     0   180    0.00   0.0   0.0   0.00   0.088   0.089   0.089   0.088   0.088   0.078   0.079   0.132   0.258
 2020 274   120   217   162      2     62    184     0     0   180    0.00   0.0   0.0   0.00   0.088   0.089   0.089   0.088   0.088   0.078   0.079   0.132   0.258
 2020 275   121   217   162      2     62    184     0     0   180    0.00   0.0   0.0   0.00   0.088   0.089   0.089   0.088   0.088   0.078   0.079   0.132   0.258
 2020 276   122   217   162      2     62    184     0     0   180    0.00   0.0   0.0   0.00   0.088   0.088   0.089   0.088   0.088   0.078   0.079   0.132   0.258
 2020 277   123   217   162      2     62    184     0     0   180    0.00   0.0   0.0   0.00   0.088   0.088   0.089   0.088   0.088   0.078   0.079   0.132   0.258
 2020 278   124   217   162      2     62    184     0     0   180    0.00   0.0   0.0   0.00   0.088   0.088   0.089   0.088   0.088   0.078   0.079   0.132   0.258
 2020 279   125   217   162      2     62    184     0     0   180    0.00   0.0   0.0   0.00   0.088   0.088   0.089   0.088   0.088   0.078   0.079   0.132   0.258
 2020 280   126   217   162      2     62    184     0     0   180    0.00   0.0   0.0   0.00   0.088   0.088   0.089   0.088   0.088   0.078   0.079   0.132   0.258
 2020 281   127   217   162      2     62    184     0     0   180    0.00   0.0   0.0   0.00   0.088   0.088   0.089   0.088   0.088   0.078   0.079   0.132   0.258
 2020 282   128   217   162      2     62    184     0     0   180    0.00   0.0   0.0   0.00   0.088   0.088   0.089   0.088   0.088   0.078   0.079   0.132   0.258
 2020 283   129   217   162      2     62    184     0     0   180    0.00   0.0   0.0   0.00   0.088   0.088   0.089   0.088   0.088   0.078   0.079   0.132   0.258
 2020 284   130   217   162      2     62    184     0     0   180    0.00   0.0   0.0   0.00   0.088   0.088   0.089   0.088   0.088   0.078   0.079   0.132   0.258
 2020 285   131   217   162      2     62    184     0     0   180    0.00   0.0   0.0   0.00   0.088   0.088   0.089   0.088   0.088   0.078   0.079   0.132   0.258
 2020 286   132   217   162      2     62    184     0     0   180    0.00   0.0   0.0   0.00   0.088   0.088   0.089   0.088   0.088   0.078   0.079   0.132   0.258
 2020 287   133   217   162      2     62    184     0     0   180    0.00   0.0   0.0   0.00   0.088   0.088   0.089   0.088   0.088   0.078   0.079   0.132   0.258
 2020 288   134   217   162      2     62    184     0     0   180    0.00   0.0   0.0   0.00   0.088   0.088   0.089   0.088   0.088   0.078   0.079   0.132   0.258
 2020 289   135   217   162      2     62    184     0     0   180    0.00   0.0   0.0   0.00   0.088   0.088   0.089   0.088   0.088   0.078   0.079   0.132   0.258
 2020 290   136   217   162      2     62    184     0     0   180    0.00   0.0   0.0   0.00   0.088   0.088   0.089   0.088   0.088   0.078   0.079   0.132   0.258
