*WATER BALANCE OUTPUT FILE

*DSSAT Cropping System Model Ver. 4.7.5.035 -develop  JUN 02, 2021 09:26:05

*RUN   1        : 20 IRRIG, light rate,freq CRGRO047 UFGA7801    1
 MODEL          : CRGRO047 - Soybean
 EXPERIMENT     : UFGA7801 SB BRAGG, IRRIGATED & NON-IRRIGATED
 DATA PATH      :
 TREATMENT  1   : 20 IRRIG, light rate,freq CRGRO047
  

!     WATER BALANCE PARAMETERS
!     ========================                 --mm--

!     Soil H20 (start) on Year/day 2020/155    213.60
!     Soil H20 (final) on Year/day 2020/290    217.70
!     Effective Irrigation                     129.75
!     Precipitation                            183.60
!     Water added with new mulch                 0.00
!     Drainage                                 128.12
!     Tiledrain flow                             0.00
!     Runoff                                     4.43
!     Mulch evaporation                          0.00
!     Soil Evaporation                         161.44
!     Transpiration                             15.26
!     Potential ET                             418.77

!     Initial mulch water content                0.00
!     Final mulch water content                  0.00

!     Final Balance                             0.001


*DSSAT Cropping System Model Ver. 4.7.5.035 -develop  JUN 02, 2021 09:26:05

*RUN   2        : 20 RAINFED BRAGG          CRGRO047 UFGA7801    2
 MODEL          : CRGRO047 - Soybean
 EXPERIMENT     : UFGA7801 SB BRAGG, IRRIGATED & NON-IRRIGATED
 DATA PATH      :
 TREATMENT  2   : 20 RAINFED BRAGG          CRGRO047
  

!     WATER BALANCE PARAMETERS
!     ========================                 --mm--

!     Soil H20 (start) on Year/day 2020/155    213.60
!     Soil H20 (final) on Year/day 2020/290    216.83
!     Effective Irrigation                       0.00
!     Precipitation                            183.60
!     Water added with new mulch                 0.00
!     Drainage                                  61.89
!     Tiledrain flow                             0.00
!     Runoff                                     1.91
!     Mulch evaporation                          0.00
!     Soil Evaporation                         105.64
!     Transpiration                             10.93
!     Potential ET                             418.77

!     Initial mulch water content                0.00
!     Final mulch water content                  0.00

!     Final Balance                            -0.001

