
*SOIL N BALANCE - CENTURY ROUTINES

*DSSAT Cropping System Model Ver. 4.7.5.035 -develop  JUN 02, 2021 09:26:05

!                              |--------------- Initial N State Variables ----------------|----------------- Final N State Variables -----------------|------------- N Additions -------------|---------------- N Subtractions -----------------|--Mineralization---|----- Seasonal Balance -----|
!                              |----------------- Organic ----------------------|         |------------------ Organic ----------------------|         |  Harvest   Applied                    |              Tile-     Plant     N gas     Flood|   Miner-    Immob-|                            |
!                              | Surface      SOM1      SOM2      SOM3    Litter     Inorg|  Surface      SOM1      SOM2      SOM3    Litter     Inorg|  Residue   Residue  Fertiliz   Senesed|  Leached   drained    Uptake    Losses    Losses|   alized    ilized|Inorganic   Organic   Overall
@Run FILEX               TN CR     SN0Di    S1NTDi    S2NTDi    S3NTDi     LNTDi     NIADi      SN0D     S1NTD     S2NTD     S3NTD      LNTD      NIAD      HRNH     RESNC      NICM     SNNTC      NLCM      TDFC      NUCM     NGasC      RNRO      NMNC      NIMC    InNBal   OrgNBal     SNBAL
   1 UFGA7801.SBX         1 SB      0.00      0.00   3891.90      0.00      0.75     39.32      0.12      0.00   3868.13      0.00      2.03     43.06      0.00      8.00      0.00      0.61     24.73      0.00      1.83      0.66      0.00     31.38      0.41      0.00     -0.00     -0.00
   2 UFGA7801.SBX         2 SB      0.00      0.00   3891.90      0.00      0.75     39.32      0.14      0.00   3868.79      0.00      2.33     55.02      0.00      8.00      0.00      0.64      8.80      0.00      5.03      0.49      0.00     30.36      0.34      0.00     -0.00     -0.00
