*SOIL ORGANIC N BALANCE

*DSSAT Cropping System Model Ver. 4.7.5.035 -develop  MAY 07, 2021 11:55:39

*RUN   1        : 20 IRRIG, light rate,freq CRGRO047 UFGA7801    1
 MODEL          : CRGRO047 - Soybean
 EXPERIMENT     : UFGA7801 SB BRAGG, IRRIGATED & NON-IRRIGATED
 DATA PATH      :
 TREATMENT  1   : 20 IRRIG, light rate,freq CRGRO047
  


!                                        INITIAL Year/Doy      FINAL Year/Doy
!                                                2020/155            2020/290
!SOIL N BALANCE                                 -----------kg N/ha-----------

!   Soil Humus N                                  3891.90             3868.13
!   Soil Litter N                                    0.75                2.03
!   N in Surface Residue                             0.00                0.12

!   Added to / Removed from Soil:
!   N in Harvest Residues from Previous Crop         0.00
!   N from Organic Applications                      8.00
!   N from senesced plant matter                     0.61
!   N immobilized                                    0.41
!   N mineralized                                                       31.38

!   Total N balance                               3901.66             3901.66
!   Balance                                                            -0.000

!===============================================================================

*DSSAT Cropping System Model Ver. 4.7.5.035 -develop  MAY 07, 2021 11:55:39

*RUN   2        : 20 RAINFED BRAGG          CRGRO047 UFGA7801    2
 MODEL          : CRGRO047 - Soybean
 EXPERIMENT     : UFGA7801 SB BRAGG, IRRIGATED & NON-IRRIGATED
 DATA PATH      :
 TREATMENT  2   : 20 RAINFED BRAGG          CRGRO047
  


!                                        INITIAL Year/Doy      FINAL Year/Doy
!                                                2020/155            2020/290
!SOIL N BALANCE                                 -----------kg N/ha-----------

!   Soil Humus N                                  3891.90             3868.79
!   Soil Litter N                                    0.75                2.33
!   N in Surface Residue                             0.00                0.14

!   Added to / Removed from Soil:
!   N in Harvest Residues from Previous Crop         0.00
!   N from Organic Applications                      8.00
!   N from senesced plant matter                     0.64
!   N immobilized                                    0.34
!   N mineralized                                                       30.36

!   Total N balance                               3901.63             3901.63
!   Balance                                                            -0.000
