*WARNING DETAIL FILE

******************************************************************************

*DSSAT Cropping System Model Ver. 4.7.5.035 -develop  MAY 07, 2021 11:55:39

*RUN   1        : 20 IRRIG, light rate,freq CRGRO047 UFGA7801    1
 MODEL          : CRGRO047 - Soybean
 EXPERIMENT     : UFGA7801 SB BRAGG, IRRIGATED & NON-IRRIGATED
 DATA PATH      :
 TREATMENT  1   : 20 IRRIG, light rate,freq CRGRO047
  

 IPRES   YEAR DOY =    0   0
 Residue application   1                                                       
 Incorporation percentage not specified, and incorporation depth > 0.          
 Applied residues will be incorporated to a depth of  15.0 cm.                 

 SOILDYN  YEAR DOY = 2020 155
 Soil photosynthesis factor (SLPF) = 0.92                                      

 IPWTH   YEAR DOY = 2020 290
 Weather record not found for YR DOY: 2020 290                                 
   RT012001.WTH                                                                
 Simulation will end.                                                          

******************************************************************************

*DSSAT Cropping System Model Ver. 4.7.5.035 -develop  MAY 07, 2021 11:55:39

*RUN   2        : 20 RAINFED BRAGG          CRGRO047 UFGA7801    2
 MODEL          : CRGRO047 - Soybean
 EXPERIMENT     : UFGA7801 SB BRAGG, IRRIGATED & NON-IRRIGATED
 DATA PATH      :
 TREATMENT  2   : 20 RAINFED BRAGG          CRGRO047
  

 IPRES   YEAR DOY =    0   0
 Residue application   1                                                       
 Incorporation percentage not specified, and incorporation depth > 0.          
 Applied residues will be incorporated to a depth of  15.0 cm.                 

 SOILDYN  YEAR DOY = 2020 155
 Soil photosynthesis factor (SLPF) = 0.92                                      

 IPWTH   YEAR DOY = 2020 290
 Weather record not found for YR DOY: 2020 290                                 
   RT012001.WTH                                                                
 Simulation will end.                                                          
